SandboxData_C2S7_20210305/C2S7N02020/scenario_001/case.raw
0,100.0,33,0,0,60.0
GRID OPTIMIZATION COMPETITION CHALLENGE 2
INPUT DATA FILES ARE RAW JSON CON
1,'ADAMS 1 1',69.0,1,1,1,1,1.01400995,-19.077451,1.1,0.9,1.1,0.9
2,'ADAMS 2 1',69.0,1,1,1,1,1.02090526,-20.465892,1.1,0.9,1.1,0.9
3,'ADAMS 3 1',69.0,1,1,1,1,1.00228441,-17.56753,1.1,0.9,1.1,0.9
4,'ALEXANDRIA~1',69.0,1,1,1,1,1.02166045,-21.667047,1.1,0.9,1.1,0.9
5,'ALEXANDRIA~2',69.0,1,1,1,1,1.02163148,-21.669373,1.1,0.9,1.1,0.9
6,'ALEXANDRIA~3',69.0,1,1,1,1,1.0250107,-20.932459,1.1,0.9,1.1,0.9
7,'ANTIOCH 1 1',138.0,1,1,1,1,1.01665199,-21.683149,1.1,0.9,1.1,0.9
8,'ANTIOCH 1 2',69.0,1,1,1,1,1.01537037,-23.146623,1.1,0.9,1.1,0.9
9,'ANTIOCH 1 3',138.0,1,1,1,1,1.01688397,-21.62142,1.1,0.9,1.1,0.9
10,'ANTIOCH 2 1',138.0,1,1,1,1,1.01761949,-20.850249,1.1,0.9,1.1,0.9
11,'ANTIOCH 2 2',69.0,1,1,1,1,1.00833762,-22.918983,1.1,0.9,1.1,0.9
12,'ANTIOCH 3 1',69.0,1,1,1,1,1.00935376,-22.5679,1.1,0.9,1.1,0.9
13,'ANTIOCH 4 1',138.0,1,1,1,1,1.0195086,-20.912161,1.1,0.9,1.1,0.9
14,'ANTIOCH 4 2',69.0,1,1,1,1,1.0070014,-23.172551,1.1,0.9,1.1,0.9
15,'ANTIOCH 5 1',69.0,1,1,1,1,1.01008141,-23.532493,1.1,0.9,1.1,0.9
16,'ASHLAND CI~1',69.0,1,1,1,1,1.00260854,-18.844857,1.1,0.9,1.1,0.9
17,'ASHLAND CI~2',69.0,1,1,1,1,1.00043583,-19.370628,1.1,0.9,1.1,0.9
18,'ASHLAND CI~3',69.0,1,1,1,1,1.00534272,-18.329294,1.1,0.9,1.1,0.9
19,'ASHLAND CI~4',138.0,1,1,1,1,1.02808356,-15.470713,1.1,0.9,1.1,0.9
20,'ASHLAND CI~5',69.0,1,1,1,1,1.01126111,-17.797919,1.1,0.9,1.1,0.9
21,'ASHLAND CI~6',138.0,1,1,1,1,1.02797949,-15.452193,1.1,0.9,1.1,0.9
22,'BEECHGROVE 1',69.0,1,1,1,1,1.03445446,-22.739484,1.1,0.9,1.1,0.9
23,'BELL BUCKL~1',69.0,1,1,1,1,1.00862777,-24.504268,1.1,0.9,1.1,0.9
24,'BELL BUCKL~2',69.0,1,1,1,1,1.00482869,-24.417064,1.1,0.9,1.1,0.9
25,'BELL BUCKL~3',69.0,1,1,1,1,1.02015877,-23.051055,1.1,0.9,1.1,0.9
26,'BELL BUCKL~4',69.0,1,1,1,1,1.0201093,-23.054571,1.1,0.9,1.1,0.9
27,'BETHPAGE 1 1',69.0,1,1,1,1,1.01382065,-23.652914,1.1,0.9,1.1,0.9
28,'BETHPAGE 1 2',69.0,1,1,1,1,1.01379788,-23.65677,1.1,0.9,1.1,0.9
29,'BETHPAGE 2 1',69.0,1,1,1,1,1.01749718,-22.820615,1.1,0.9,1.1,0.9
30,'BIG ROCK 1',69.0,1,1,1,1,1.00669873,-10.639352,1.1,0.9,1.1,0.9
31,'BON AQUA 1 1',69.0,1,1,1,1,1.00972068,-19.752362,1.1,0.9,1.1,0.9
32,'BON AQUA 2 1',69.0,1,1,1,1,1.02288544,-18.744628,1.1,0.9,1.1,0.9
33,'BON AQUA 3 1',69.0,1,1,1,1,1.04250395,-19.348859,1.1,0.9,1.1,0.9
34,'BRENTWOOD ~1',138.0,1,1,1,1,1.02096057,-18.343305,1.1,0.9,1.1,0.9
35,'BRENTWOOD ~2',69.0,1,1,1,1,1.01825142,-21.407355,1.1,0.9,1.1,0.9
36,'BRENTWOOD ~3',138.0,1,1,1,1,1.0214045,-18.265338,1.1,0.9,1.1,0.9
37,'BRENTWOOD ~4',138.0,1,1,1,1,1.01955533,-18.930629,1.1,0.9,1.1,0.9
38,'BRENTWOOD ~5',69.0,1,1,1,1,1.0189327,-22.274551,1.1,0.9,1.1,0.9
39,'BRENTWOOD ~6',69.0,1,1,1,1,1.02052903,-22.095472,1.1,0.9,1.1,0.9
40,'BRENTWOOD ~7',69.0,1,1,1,1,1.02064168,-22.108615,1.1,0.9,1.1,0.9
41,'BRENTWOOD ~8',69.0,1,1,1,1,1.01674163,-21.926956,1.1,0.9,1.1,0.9
42,'BRENTWOOD ~9',69.0,1,1,1,1,1.00754821,-22.860995,1.1,0.9,1.1,0.9
43,'BRENTWOOD~10',69.0,1,1,1,1,1.00743139,-22.884761,1.1,0.9,1.1,0.9
44,'BURNS 1 1',69.0,1,1,1,1,1.03211689,-19.75896,1.1,0.9,1.1,0.9
45,'BURNS 1 2',69.0,1,1,1,1,1.03213334,-19.757196,1.1,0.9,1.1,0.9
46,'BURNS 2 1',69.0,1,1,1,1,1.00265992,-20.4006,1.1,0.9,1.1,0.9
47,'CARTHAGE 1 1',69.0,1,1,1,1,1.02158105,-21.87415,1.1,0.9,1.1,0.9
48,'CARTHAGE 2 1',69.0,1,1,1,1,1.02236748,-21.987945,1.1,0.9,1.1,0.9
49,'CARTHAGE 2 2',69.0,1,1,1,1,1.02238715,-21.985204,1.1,0.9,1.1,0.9
50,'CARTHAGE 3 1',69.0,1,1,1,1,1.01851273,-22.129736,1.1,0.9,1.1,0.9
51,'CARTHAGE 3 2',69.0,1,1,1,1,1.01846874,-22.135057,1.1,0.9,1.1,0.9
52,'CEDAR HILL~1',69.0,1,1,1,1,1.00487506,-17.657533,1.1,0.9,1.1,0.9
53,'CEDAR HILL~2',69.0,1,1,1,1,1.00290799,-17.644991,1.1,0.9,1.1,0.9
54,'CEDAR HILL~3',69.0,1,1,1,1,1.00289404,-17.646374,1.1,0.9,1.1,0.9
55,'CENTERVILL~1',138.0,1,1,1,1,1.02916956,-15.471753,1.1,0.9,1.1,0.9
56,'CENTERVILL~2',69.0,1,1,1,1,1.01570082,-16.046747,1.1,0.9,1.1,0.9
57,'CENTERVILL~3',138.0,1,1,1,1,1.02910471,-15.476917,1.1,0.9,1.1,0.9
58,'CENTERVILL~4',69.0,1,1,1,1,1.01663959,-15.149481,1.1,0.9,1.1,0.9
59,'CENTERVILL~5',69.0,1,1,1,1,1.01215839,-16.701631,1.1,0.9,1.1,0.9
60,'CHAPEL HIL~1',69.0,1,1,1,1,1.02892399,-23.995564,1.1,0.9,1.1,0.9
61,'CHAPEL HIL~2',69.0,1,1,1,1,1.01145673,-23.165587,1.1,0.9,1.1,0.9
62,'CHAPEL HIL~3',69.0,1,1,1,1,1.04108775,-24.087417,1.1,0.9,1.1,0.9
63,'CHAPMANSBO~1',69.0,1,1,1,1,1.00462782,-17.847271,1.1,0.9,1.1,0.9
64,'CHAPMANSBO~2',69.0,1,1,1,1,1.01414907,-17.406604,1.1,0.9,1.1,0.9
65,'CHARLOTTE ~1',69.0,1,1,1,1,1.00984263,-15.956732,1.1,0.9,1.1,0.9
66,'CHARLOTTE ~2',69.0,1,1,1,1,1.01360381,-15.939239,1.1,0.9,1.1,0.9
67,'CHARLOTTE ~3',69.0,1,1,1,1,1.00785351,-16.661656,1.1,0.9,1.1,0.9
68,'CHRISTIANA~1',69.0,1,1,1,1,1.02236462,-24.062312,1.1,0.9,1.1,0.9
69,'CHRISTIANA~2',69.0,1,1,1,1,1.03923416,-23.600739,1.1,0.9,1.1,0.9
70,'CLARKSVILL~1',138.0,1,1,1,1,1.01855624,-13.377293,1.1,0.9,1.1,0.9
71,'CLARKSVILL~2',69.0,1,1,1,1,1.01768541,-14.375883,1.1,0.9,1.1,0.9
72,'CLARKSVILL~3',138.0,1,1,1,1,1.01841128,-13.401636,1.1,0.9,1.1,0.9
73,'CLARKSVIL~12',138.0,1,1,1,1,1.01628399,-14.721622,1.1,0.9,1.1,0.9
74,'CLARKSVIL~13',69.0,1,1,1,1,1.00796175,-16.864782,1.1,0.9,1.1,0.9
75,'CLARKSVIL~14',138.0,1,1,1,1,1.01644635,-14.703364,1.1,0.9,1.1,0.9
76,'CLARKSVIL~15',345.0,1,1,1,1,1.03277612,-11.970341,1.1,0.9,1.1,0.9
77,'CLARKSVIL~16',138.0,1,1,1,1,1.02462757,-13.650863,1.1,0.9,1.1,0.9
78,'CLARKSVIL~17',69.0,1,1,1,1,1.01351452,-15.342651,1.1,0.9,1.1,0.9
79,'CLARKSVIL~18',69.0,1,1,1,1,1.00985539,-15.15552,1.1,0.9,1.1,0.9
80,'CLARKSVIL~19',69.0,1,1,1,1,1.00608838,-14.89561,1.1,0.9,1.1,0.9
81,'CLARKSVIL~20',69.0,1,1,1,1,1.00659418,-15.669238,1.1,0.9,1.1,0.9
82,'CLARKSVIL~21',138.0,1,1,1,1,1.01992512,-14.212147,1.1,0.9,1.1,0.9
83,'CLARKSVIL~22',69.0,1,1,1,1,1.00649655,-15.730989,1.1,0.9,1.1,0.9
84,'CLARKSVIL~23',138.0,1,1,1,1,1.02005315,-14.20392,1.1,0.9,1.1,0.9
85,'CLARKSVIL~24',138.0,1,1,1,1,1.02293146,-13.33599,1.1,0.9,1.1,0.9
86,'CLARKSVIL~25',69.0,1,1,1,1,1.01387239,-14.658151,1.1,0.9,1.1,0.9
87,'CLARKSVIL~26',138.0,1,1,1,1,1.02274966,-13.352509,1.1,0.9,1.1,0.9
88,'CLARKSVIL~27',138.0,1,1,1,1,1.01987183,-11.650022,1.1,0.9,1.1,0.9
89,'CLARKSVIL~28',69.0,1,1,1,1,1.00518954,-13.816157,1.1,0.9,1.1,0.9
90,'CLARKSVILL~4',138.0,1,1,1,1,1.02469921,-14.776527,1.1,0.9,1.1,0.9
91,'CLARKSVILL~5',69.0,1,1,1,1,1.02011824,-16.698868,1.1,0.9,1.1,0.9
92,'CLARKSVILL~6',138.0,1,1,1,1,1.02482009,-14.757226,1.1,0.9,1.1,0.9
93,'CLARKSVILL~7',69.0,1,1,1,1,1.0109849,-15.454869,1.1,0.9,1.1,0.9
94,'CLARKSVILL~8',69.0,1,1,1,1,1.01103556,-15.449121,1.1,0.9,1.1,0.9
95,'CLARKSVILL~9',69.0,1,1,1,1,1.00887823,-17.068465,1.1,0.9,1.1,0.9
96,'CLARKSVIL~10',138.0,1,1,1,1,1.02269888,-13.890613,1.1,0.9,1.1,0.9
97,'CLARKSVIL~11',69.0,1,1,1,1,1.01490748,-14.988835,1.1,0.9,1.1,0.9
98,'COLLEGE GR~1',69.0,1,1,1,1,1.02066565,-22.954179,1.1,0.9,1.1,0.9
99,'COLLEGE GR~2',69.0,1,1,1,1,1.01836526,-23.026439,1.1,0.9,1.1,0.9
100,'COLLEGE GR~3',69.0,1,1,1,1,1.01826131,-23.788202,1.1,0.9,1.1,0.9
101,'CORNERSVIL~1',69.0,1,1,1,1,1.01209605,-21.132125,1.1,0.9,1.1,0.9
102,'CORNERSVIL~2',69.0,1,1,1,1,1.01207614,-21.134335,1.1,0.9,1.1,0.9
103,'COTTONTOWN~1',69.0,1,1,1,1,1.02828455,-22.828029,1.1,0.9,1.1,0.9
104,'COTTONTOWN~2',69.0,1,1,1,1,1.02709818,-24.792332,1.1,0.9,1.1,0.9
105,'CROSS PLAI~1',69.0,1,1,1,1,1.02185905,-24.315755,1.1,0.9,1.1,0.9
106,'CUMBERLAND~7',69.0,1,1,1,1,1.02366769,-11.378516,1.1,0.9,1.1,0.9
107,'CUMBERLAND~8',69.0,1,1,1,1,1.01557171,-15.431282,1.1,0.9,1.1,0.9
108,'CUMBERLAND~9',69.0,1,1,1,1,1.01346946,-14.840498,1.1,0.9,1.1,0.9
109,'CUNNINGHAM 1',69.0,1,1,1,1,1.00824916,-15.695708,1.1,0.9,1.1,0.9
110,'DICKSON 1 1',69.0,1,1,1,1,1.03118765,-18.126096,1.1,0.9,1.1,0.9
111,'DICKSON 1 2',69.0,1,1,1,1,1.03114021,-18.133635,1.1,0.9,1.1,0.9
112,'DICKSON 2 1',138.0,1,1,1,1,1.02536285,-15.149148,1.1,0.9,1.1,0.9
113,'DICKSON 2 2',69.0,1,1,1,1,1.01296282,-16.523548,1.1,0.9,1.1,0.9
114,'DICKSON 2 3',138.0,1,1,1,1,1.02546227,-15.142856,1.1,0.9,1.1,0.9
115,'DICKSON 3 1',138.0,1,1,1,1,1.02598071,-11.989388,1.1,0.9,1.1,0.9
116,'DICKSON 3 2',69.0,1,1,1,1,1.01988721,-13.839848,1.1,0.9,1.1,0.9
117,'DICKSON 4 1',69.0,1,1,1,1,1.01304233,-16.42436,1.1,0.9,1.1,0.9
118,'DOVER 1 1',138.0,1,1,1,1,1.03036308,-9.70516,1.1,0.9,1.1,0.9
119,'DOVER 1 2',69.0,1,1,1,1,1.02064371,-8.485404,1.1,0.9,1.1,0.9
120,'DOVER 1 3',138.0,1,1,1,1,1.03042257,-9.721559,1.1,0.9,1.1,0.9
121,'DOVER 2 1',69.0,1,1,1,1,1.01589298,-8.837104,1.1,0.9,1.1,0.9
122,'DOVER 3 1',69.0,1,1,1,1,1.02305019,-7.82736,1.1,0.9,1.1,0.9
123,'DOVER 3 2',69.0,1,1,1,1,1.02303207,-7.830488,1.1,0.9,1.1,0.9
124,'DOWELLTOWN 1',69.0,1,1,1,1,1.0266993,-20.359764,1.1,0.9,1.1,0.9
125,'ERIN 1 1',69.0,1,1,1,1,1.01919782,-13.232413,1.1,0.9,1.1,0.9
126,'ERIN 2 1',69.0,1,1,1,1,1.01092041,-15.226512,1.1,0.9,1.1,0.9
127,'ERIN 3 1',69.0,1,1,1,1,1.02530229,-9.554224,1.1,0.9,1.1,0.9
128,'FAIRVIEW 1 1',69.0,1,1,1,1,0.99877483,-21.28886,1.1,0.9,1.1,0.9
129,'FAIRVIEW 2 1',69.0,1,1,1,1,1.00989544,-21.467389,1.1,0.9,1.1,0.9
130,'FAIRVIEW 3 1',138.0,1,1,1,1,1.03540111,-16.772493,1.1,0.9,1.1,0.9
131,'FAIRVIEW 3 2',69.0,1,1,1,1,1.01845729,-20.45212,1.1,0.9,1.1,0.9
132,'FRANKLIN 1 1',69.0,1,1,1,1,0.98746067,-24.018567,1.1,0.9,1.1,0.9
133,'FRANKLIN 2 1',69.0,1,1,1,1,0.99175036,-23.494056,1.1,0.9,1.1,0.9
134,'FRANKLIN 3 1',138.0,1,1,1,1,1.00716543,-19.936552,1.1,0.9,1.1,0.9
135,'FRANKLIN 3 2',69.0,1,1,1,1,0.98366946,-24.364205,1.1,0.9,1.1,0.9
136,'FRANKLIN 4 1',138.0,1,1,1,1,1.01984811,-18.845848,1.1,0.9,1.1,0.9
137,'FRANKLIN 4 2',69.0,1,1,1,1,0.99169779,-23.60923,1.1,0.9,1.1,0.9
138,'FRANKLIN 5 1',69.0,1,1,1,1,0.99704325,-23.010055,1.1,0.9,1.1,0.9
139,'GALLATIN 1 1',138.0,1,1,1,1,1.02897739,-19.431219,1.1,0.9,1.1,0.9
140,'GALLATIN 1 2',69.0,1,1,1,1,1.02197099,-20.886831,1.1,0.9,1.1,0.9
141,'GALLATIN 2 1',69.0,1,1,1,1,1.02880824,-20.26451,1.1,0.9,1.1,0.9
142,'GALLATIN 2 2',69.0,1,1,1,1,1.02874601,-20.271802,1.1,0.9,1.1,0.9
143,'GALLATIN 3 1',138.0,1,1,1,1,1.03622985,-19.683453,1.1,0.9,1.1,0.9
144,'GALLATIN 3 2',69.0,1,1,1,1,1.021631,-21.873206,1.1,0.9,1.1,0.9
145,'FRANKLIN 6 1',69.0,1,1,1,1,1.02025378,-22.527893,1.1,0.9,1.1,0.9
146,'FRANKLIN 7 1',69.0,1,1,1,1,1.02313089,-22.291941,1.1,0.9,1.1,0.9
147,'FRANKLIN 8 1',69.0,1,1,1,1,1.01356351,-22.157313,1.1,0.9,1.1,0.9
148,'FRANKLIN 9 1',69.0,1,1,1,1,1.02803838,-22.804366,1.1,0.9,1.1,0.9
149,'FRANKLIN 1~1',69.0,1,1,1,1,1.01707852,-21.839866,1.1,0.9,1.1,0.9
150,'FRANKLIN 1~2',69.0,1,1,1,1,1.01703024,-21.845585,1.1,0.9,1.1,0.9
151,'FRANKLIN 1~3',69.0,1,1,1,1,1.0164144,-21.548607,1.1,0.9,1.1,0.9
152,'FRANKLIN 1~4',69.0,1,1,1,1,1.01273572,-21.95071,1.1,0.9,1.1,0.9
153,'FRANKLIN 1~5',69.0,1,1,1,1,0.98077452,-24.780261,1.1,0.9,1.1,0.9
154,'GOODLETTSV~1',69.0,1,1,1,1,1.04313207,-24.216226,1.1,0.9,1.1,0.9
155,'GOODLETTSV~2',69.0,1,1,1,1,1.01032901,-22.038478,1.1,0.9,1.1,0.9
156,'GOODLETTSV~3',138.0,1,1,1,1,1.0246098,-20.153571,1.1,0.9,1.1,0.9
157,'GOODLETTSV~4',69.0,1,1,1,1,1.01532817,-22.001247,1.1,0.9,1.1,0.9
158,'GREENBRIER~1',69.0,1,1,1,1,1.00496292,-19.705567,1.1,0.9,1.1,0.9
159,'GREENBRIER~2',69.0,1,1,1,1,1.01180041,-22.061368,1.1,0.9,1.1,0.9
160,'GREENBRIER~3',69.0,1,1,1,1,1.01507342,-22.369261,1.1,0.9,1.1,0.9
161,'HARTSVILLE~1',69.0,1,1,1,1,1.02510989,-22.100721,1.1,0.9,1.1,0.9
162,'HARTSVILLE~2',138.0,1,1,1,1,1.0328331,-19.108892,1.1,0.9,1.1,0.9
163,'HARTSVILLE~3',69.0,1,1,1,1,1.02956951,-21.236108,1.1,0.9,1.1,0.9
164,'HENDERSONV~1',69.0,1,1,1,1,1.01266313,-21.821753,1.1,0.9,1.1,0.9
165,'HENDERSONV~2',138.0,1,1,1,1,1.02541268,-20.062251,1.1,0.9,1.1,0.9
166,'HENDERSONV~3',69.0,1,1,1,1,1.01213884,-21.583753,1.1,0.9,1.1,0.9
167,'HENDERSONV~4',69.0,1,1,1,1,1.02148032,-22.039822,1.1,0.9,1.1,0.9
168,'HENDERSONV~5',138.0,1,1,1,1,1.02632976,-19.714031,1.1,0.9,1.1,0.9
169,'HENDERSONV~6',69.0,1,1,1,1,1.01651645,-21.50733,1.1,0.9,1.1,0.9
170,'HENDERSONV~7',138.0,1,1,1,1,1.02612829,-19.737452,1.1,0.9,1.1,0.9
171,'HENDERSONV~8',69.0,1,1,1,1,1.00780773,-21.853868,1.1,0.9,1.1,0.9
172,'HERMITAGE ~1',69.0,1,1,1,1,1.00600898,-23.07937,1.1,0.9,1.1,0.9
173,'HERMITAGE ~2',138.0,1,1,1,1,1.02050352,-20.436112,1.1,0.9,1.1,0.9
174,'HERMITAGE ~3',69.0,1,1,1,1,1.00892937,-23.177993,1.1,0.9,1.1,0.9
175,'HERMITAGE ~4',69.0,1,1,1,1,1.01211786,-21.81378,1.1,0.9,1.1,0.9
176,'HERMITAGE ~5',69.0,1,1,1,1,1.01618457,-21.689993,1.1,0.9,1.1,0.9
177,'JOELTON 1 1',69.0,1,1,1,1,0.99456275,-22.879868,1.1,0.9,1.1,0.9
178,'JOELTON 1 2',69.0,1,1,1,1,0.9946124,-22.876972,1.1,0.9,1.1,0.9
179,'JOELTON 2 1',69.0,1,1,1,1,1.00389445,-19.165019,1.1,0.9,1.1,0.9
180,'KINGSTON S~1',69.0,1,1,1,1,1.00114715,-20.142728,1.1,0.9,1.1,0.9
181,'KINGSTON S~2',69.0,1,1,1,1,1.01540053,-20.285373,1.1,0.9,1.1,0.9
182,'KINGSTON S~3',69.0,1,1,1,1,1.01537693,-20.289786,1.1,0.9,1.1,0.9
183,'KINGSTON S~4',69.0,1,1,1,1,1.00426471,-20.679699,1.1,0.9,1.1,0.9
184,'LAFAYETTE ~1',138.0,1,1,1,1,1.04152107,-25.478346,1.1,0.9,1.1,0.9
185,'LAFAYETTE ~2',69.0,1,1,1,1,1.0321281,-26.193649,1.1,0.9,1.1,0.9
186,'LAFAYETTE ~3',138.0,1,1,1,1,1.04161191,-25.474121,1.1,0.9,1.1,0.9
187,'LAFAYETTE ~4',69.0,1,1,1,1,1.02372634,-21.717099,1.1,0.9,1.1,0.9
188,'LAFAYETTE ~5',138.0,1,1,1,1,1.04517007,-25.257532,1.1,0.9,1.1,0.9
189,'LAFAYETTE ~6',69.0,1,1,1,1,1.03590679,-25.141829,1.1,0.9,1.1,0.9
190,'LAFAYETTE ~7',138.0,1,1,1,1,1.04512548,-25.263953,1.1,0.9,1.1,0.9
191,'LASCASSAS ~1',69.0,1,1,1,1,1.02191889,-21.525328,1.1,0.9,1.1,0.9
192,'LASCASSAS ~2',69.0,1,1,1,1,1.02841687,-22.052483,1.1,0.9,1.1,0.9
193,'LA VERGNE ~1',69.0,1,1,1,1,1.01889825,-21.686305,1.1,0.9,1.1,0.9
194,'LA VERGNE ~2',69.0,1,1,1,1,1.01319754,-23.169332,1.1,0.9,1.1,0.9
195,'LA VERGNE ~3',69.0,1,1,1,1,1.01071024,-23.273152,1.1,0.9,1.1,0.9
196,'LA VERGNE ~4',69.0,1,1,1,1,1.02478063,-23.392247,1.1,0.9,1.1,0.9
197,'LEBANON 1 1',138.0,1,1,1,1,1.03071463,-19.57619,1.1,0.9,1.1,0.9
198,'LEBANON 1 2',69.0,1,1,1,1,1.02856767,-20.64035,1.1,0.9,1.1,0.9
199,'LEBANON 1 3',138.0,1,1,1,1,1.03064954,-19.586922,1.1,0.9,1.1,0.9
200,'LEBANON 2 1',138.0,1,1,1,1,1.03263247,-20.101689,1.1,0.9,1.1,0.9
...
0 / END OF BUS DATA BEGIN LOAD DATA
1,'1',1,1,1,3.334,0.312,0.0,0.0,0.0,0.0,1,1,0
2,'1',1,1,1,2.436,0.81,0.0,0.0,0.0,0.0,1,1,0
3,'1',1,1,1,7.681,2.145,0.0,0.0,0.0,0.0,1,1,0
5,'1',1,1,1,4.39,1.54,0.0,0.0,0.0,0.0,1,1,0
6,'1',1,1,1,2.368,0.244,0.0,0.0,0.0,0.0,1,1,0
8,'1',1,1,1,20.388,3.036,0.0,0.0,0.0,0.0,1,1,0
11,'1',1,1,1,20.388,6.42,0.0,0.0,0.0,0.0,1,1,0
12,'1',1,1,1,31.018,5.304,0.0,0.0,0.0,0.0,1,1,0
14,'1',1,1,1,50.212,11.57,0.0,0.0,0.0,0.0,1,1,0
15,'1',1,1,1,26.558,6.464,0.0,0.0,0.0,0.0,1,1,0
16,'1',1,1,1,11.17,1.27,0.0,0.0,0.0,0.0,1,1,0
17,'1',1,1,1,7.678,3.458,0.0,0.0,0.0,0.0,1,1,0
18,'1',1,1,1,14.647,9.467,0.0,0.0,0.0,0.0,1,1,0
20,'1',1,1,1,8.318,2.39,0.0,0.0,0.0,0.0,1,1,0
22,'1',1,1,1,2.934,1.033,0.0,0.0,0.0,0.0,1,1,0
23,'1',1,1,1,2.616,0.534,0.0,0.0,0.0,0.0,1,1,0
24,'1',1,1,1,3.924,1.314,0.0,0.0,0.0,0.0,1,1,0
26,'1',1,1,1,2.247,0.443,0.0,0.0,0.0,0.0,1,1,0
28,'1',1,1,1,6.306,0.545,0.0,0.0,0.0,0.0,1,1,0
29,'1',1,1,1,5.394,1.28,0.0,0.0,0.0,0.0,1,1,0
30,'1',1,1,1,5.987,3.008,0.0,0.0,0.0,0.0,1,1,0
31,'1',1,1,1,3.24,0.51,0.0,0.0,0.0,0.0,1,1,0
32,'1',1,1,1,14.226,5.218,0.0,0.0,0.0,0.0,1,1,0
33,'1',1,1,1,6.096,0.61,0.0,0.0,0.0,0.0,1,1,0
35,'1',1,1,1,29.747,3.383,0.0,0.0,0.0,0.0,1,1,0
38,'1',1,1,1,17.325,8.853,0.0,0.0,0.0,0.0,1,1,0
40,'1',1,1,1,18.306,0.582,0.0,0.0,0.0,0.0,1,1,0
41,'1',1,1,1,21.68,5.994,0.0,0.0,0.0,0.0,1,1,0
43,'1',1,1,1,36.856,2.833,0.0,0.0,0.0,0.0,1,1,0
44,'1',1,1,1,2.928,0.732,0.0,0.0,0.0,0.0,1,1,0
46,'1',1,1,1,7.583,4.266,0.0,0.0,0.0,0.0,1,1,0
47,'1',1,1,1,6.142,2.071,0.0,0.0,0.0,0.0,1,1,0
48,'1',1,1,1,4.636,0.801,0.0,0.0,0.0,0.0,1,1,0
51,'1',1,1,1,8.509,1.834,0.0,0.0,0.0,0.0,1,1,0
52,'1',1,1,1,4.948,0.369,0.0,0.0,0.0,0.0,1,1,0
54,'1',1,1,1,2.334,0.684,0.0,0.0,0.0,0.0,1,1,0
57,'1',1,1,1,9.617,3.448,0.0,0.0,0.0,0.0,1,1,0
58,'1',1,1,1,6.747,2.515,0.0,0.0,0.0,0.0,1,1,0
59,'1',1,1,1,10.14,2.58,0.0,0.0,0.0,0.0,1,1,0
60,'1',1,1,1,2.88,0.595,0.0,0.0,0.0,0.0,1,1,0
61,'1',1,1,1,5.086,2.409,0.0,0.0,0.0,0.0,1,1,0
62,'1',1,1,1,2.88,0.6,0.0,0.0,0.0,0.0,1,1,0
63,'1',1,1,1,4.495,0.599,0.0,0.0,0.0,0.0,1,1,0
64,'1',1,1,1,2.59,0.35,0.0,0.0,0.0,0.0,1,1,0
65,'1',1,1,1,4.572,1.089,0.0,0.0,0.0,0.0,1,1,0
66,'1',1,1,1,3.048,0.648,0.0,0.0,0.0,0.0,1,1,0
67,'1',1,1,1,2.482,0.254,0.0,0.0,0.0,0.0,1,1,0
68,'1',1,1,1,4.926,1.819,0.0,0.0,0.0,0.0,1,1,0
69,'1',1,1,1,3.431,1.386,0.0,0.0,0.0,0.0,1,1,0
72,'1',1,1,1,38.307,4.708,0.0,0.0,0.0,0.0,1,1,0
74,'1',1,1,1,26.28,10.287,0.0,0.0,0.0,0.0,1,1,0
78,'1',1,1,1,20.06,6.671,0.0,0.0,0.0,0.0,1,1,0
79,'1',1,1,1,20.176,8.685,0.0,0.0,0.0,0.0,1,1,0
80,'1',1,1,1,20.88,5.964,0.0,0.0,0.0,0.0,1,1,0
81,'1',1,1,1,25.746,6.03,0.0,0.0,0.0,0.0,1,1,0
83,'1',1,1,1,26.2,5.067,0.0,0.0,0.0,0.0,1,1,0
87,'1',1,1,1,28.886,10.318,0.0,0.0,0.0,0.0,1,1,0
89,'1',1,1,1,32.512,5.241,0.0,0.0,0.0,0.0,1,1,0
91,'1',1,1,1,12.431,1.595,0.0,0.0,0.0,0.0,1,1,0
93,'1',1,1,1,21.55,10.252,0.0,0.0,0.0,0.0,1,1,0
95,'1',1,1,1,15.576,0.732,0.0,0.0,0.0,0.0,1,1,0
97,'1',1,1,1,16.056,6.036,0.0,0.0,0.0,0.0,1,1,0
98,'1',1,1,1,3.413,0.537,0.0,0.0,0.0,0.0,1,1,0
99,'1',1,1,1,3.257,0.62,0.0,0.0,0.0,0.0,1,1,0
100,'1',1,1,1,2.862,1.053,0.0,0.0,0.0,0.0,1,1,0
102,'1',1,1,1,4.072,0.963,0.0,0.0,0.0,0.0,1,1,0
103,'1',1,1,1,3.774,1.518,0.0,0.0,0.0,0.0,1,1,0
104,'1',1,1,1,15.67,3.389,0.0,0.0,0.0,0.0,1,1,0
105,'1',1,1,1,3.628,1.818,0.0,0.0,0.0,0.0,1,1,0
106,'1',1,1,1,3.75,0.786,0.0,0.0,0.0,0.0,1,1,0
107,'1',1,1,1,5.951,0.718,0.0,0.0,0.0,0.0,1,1,0
108,'1',1,1,1,5.454,0.372,0.0,0.0,0.0,0.0,1,1,0
109,'1',1,1,1,5.882,2.499,0.0,0.0,0.0,0.0,1,1,0
111,'1',1,1,1,13.723,1.0,0.0,0.0,0.0,0.0,1,1,0
113,'1',1,1,1,15.816,5.05,0.0,0.0,0.0,0.0,1,1,0
116,'1',1,1,1,10.542,3.498,0.0,0.0,0.0,0.0,1,1,0
117,'1',1,1,1,11.471,3.18,0.0,0.0,0.0,0.0,1,1,0
119,'1',1,1,1,15.25,5.514,0.0,0.0,0.0,0.0,1,1,0
121,'1',1,1,1,5.144,1.274,0.0,0.0,0.0,0.0,1,1,0
123,'1',1,1,1,5.006,0.652,0.0,0.0,0.0,0.0,1,1,0
124,'1',1,1,1,8.113,2.997,0.0,0.0,0.0,0.0,1,1,0
125,'1',1,1,1,4.464,0.852,0.0,0.0,0.0,0.0,1,1,0
126,'1',1,1,1,2.684,0.847,0.0,0.0,0.0,0.0,1,1,0
127,'1',1,1,1,4.818,0.801,0.0,0.0,0.0,0.0,1,1,0
128,'1',1,1,1,10.204,6.006,0.0,0.0,0.0,0.0,1,1,0
129,'1',1,1,1,8.382,0.801,0.0,0.0,0.0,0.0,1,1,0
131,'1',1,1,1,15.484,5.924,0.0,0.0,0.0,0.0,1,1,0
132,'1',1,1,1,24.092,3.187,0.0,0.0,0.0,0.0,1,1,0
133,'1',1,1,1,22.518,8.703,0.0,0.0,0.0,0.0,1,1,0
135,'1',1,1,1,32.379,7.713,0.0,0.0,0.0,0.0,1,1,0
137,'1',1,1,1,15.012,2.424,0.0,0.0,0.0,0.0,1,1,0
138,'1',1,1,1,19.198,3.645,0.0,0.0,0.0,0.0,1,1,0
140,'1',1,1,1,46.505,3.12,0.0,0.0,0.0,0.0,1,1,0
142,'1',1,1,1,13.648,3.143,0.0,0.0,0.0,0.0,1,1,0
144,'1',1,1,1,16.674,5.604,0.0,0.0,0.0,0.0,1,1,0
145,'1',1,1,1,10.861,2.975,0.0,0.0,0.0,0.0,1,1,0
146,'1',1,1,1,13.889,2.557,0.0,0.0,0.0,0.0,1,1,0
147,'1',1,1,1,13.836,2.35,0.0,0.0,0.0,0.0,1,1,0
148,'1',1,1,1,9.222,2.748,0.0,0.0,0.0,0.0,1,1,0
150,'1',1,1,1,10.531,1.801,0.0,0.0,0.0,0.0,1,1,0
151,'1',1,1,1,11.22,8.552,0.0,0.0,0.0,0.0,1,1,0
152,'1',1,1,1,12.28,0.26,0.0,0.0,0.0,0.0,1,1,0
153,'1',1,1,1,11.052,1.782,0.0,0.0,0.0,0.0,1,1,0
154,'1',1,1,1,13.512,4.254,0.0,0.0,0.0,0.0,1,1,0
155,'1',1,1,1,9.108,2.309,0.0,0.0,0.0,0.0,1,1,0
157,'1',1,1,1,13.433,3.495,0.0,0.0,0.0,0.0,1,1,0
158,'1',1,1,1,12.328,4.569,0.0,0.0,0.0,0.0,1,1,0
159,'1',1,1,1,12.338,2.09,0.0,0.0,0.0,0.0,1,1,0
160,'1',1,1,1,6.942,0.99,0.0,0.0,0.0,0.0,1,1,0
161,'1',1,1,1,6.282,2.238,0.0,0.0,0.0,0.0,1,1,0
163,'1',1,1,1,11.864,4.059,0.0,0.0,0.0,0.0,1,1,0
164,'1',1,1,1,40.744,16.689,0.0,0.0,0.0,0.0,1,1,0
166,'1',1,1,1,18.708,11.167,0.0,0.0,0.0,0.0,1,1,0
167,'1',1,1,1,24.782,2.188,0.0,0.0,0.0,0.0,1,1,0
170,'1',1,1,1,42.776,8.192,0.0,0.0,0.0,0.0,1,1,0
171,'1',1,1,1,41.507,18.376,0.0,0.0,0.0,0.0,1,1,0
172,'1',1,1,1,16.269,2.707,0.0,0.0,0.0,0.0,1,1,0
174,'1',1,1,1,13.74,0.666,0.0,0.0,0.0,0.0,1,1,0
175,'1',1,1,1,12.27,8.964,0.0,0.0,0.0,0.0,1,1,0
176,'1',1,1,1,12.552,3.426,0.0,0.0,0.0,0.0,1,1,0
177,'1',1,1,1,5.166,2.971,0.0,0.0,0.0,0.0,1,1,0
179,'1',1,1,1,6.475,1.305,0.0,0.0,0.0,0.0,1,1,0
180,'1',1,1,1,4.254,1.295,0.0,0.0,0.0,0.0,1,1,0
182,'1',1,1,1,7.94,0.796,0.0,0.0,0.0,0.0,1,1,0
183,'1',1,1,1,5.771,1.469,0.0,0.0,0.0,0.0,1,1,0
185,'1',1,1,1,20.01,1.83,0.0,0.0,0.0,0.0,1,1,0
187,'1',1,1,1,6.858,1.024,0.0,0.0,0.0,0.0,1,1,0
190,'1',1,1,1,12.05,1.8,0.0,0.0,0.0,0.0,1,1,0
191,'1',1,1,1,4.134,1.009,0.0,0.0,0.0,0.0,1,1,0
192,'1',1,1,1,2.66,0.502,0.0,0.0,0.0,0.0,1,1,0
193,'1',1,1,1,17.542,2.441,0.0,0.0,0.0,0.0,1,1,0
194,'1',1,1,1,12.288,9.558,0.0,0.0,0.0,0.0,1,1,0
195,'1',1,1,1,15.362,5.491,0.0,0.0,0.0,0.0,1,1,0
196,'1',1,1,1,19.101,1.586,0.0,0.0,0.0,0.0,1,1,0
199,'1',1,1,1,19.805,2.281,0.0,0.0,0.0,0.0,1,1,0
202,'1',1,1,1,18.901,7.895,0.0,0.0,0.0,0.0,1,1,0
203,'1',1,1,1,21.716,4.905,0.0,0.0,0.0,0.0,1,1,0
205,'1',1,1,1,28.982,5.583,0.0,0.0,0.0,0.0,1,1,0
207,'1',1,1,1,6.0,1.966,0.0,0.0,0.0,0.0,1,1,0
209,'1',1,1,1,14.52,4.385,0.0,0.0,0.0,0.0,1,1,0
210,'1',1,1,1,8.595,3.722,0.0,0.0,0.0,0.0,1,1,0
212,'1',1,1,1,14.652,3.285,0.0,0.0,0.0,0.0,1,1,0
214,'1',1,1,1,9.287,2.15,0.0,0.0,0.0,0.0,1,1,0
217,'1',1,1,1,20.05,3.278,0.0,0.0,0.0,0.0,1,1,0
220,'1',1,1,1,9.756,0.65,0.0,0.0,0.0,0.0,1,1,0
221,'1',1,1,1,5.727,1.873,0.0,0.0,0.0,0.0,1,1,0
222,'1',1,1,1,2.862,1.83,0.0,0.0,0.0,0.0,1,1,0
223,'1',1,1,1,2.668,0.554,0.0,0.0,0.0,0.0,1,1,0
224,'1',1,1,1,5.364,1.629,0.0,0.0,0.0,0.0,1,1,0
225,'1',1,1,1,4.614,2.028,0.0,0.0,0.0,0.0,1,1,0
226,'1',1,1,1,2.98,0.678,0.0,0.0,0.0,0.0,1,1,0
227,'1',1,1,1,3.342,0.9,0.0,0.0,0.0,0.0,1,1,0
231,'1',1,1,1,10.837,2.512,0.0,0.0,0.0,0.0,1,1,0
232,'1',1,1,1,21.263,9.313,0.0,0.0,0.0,0.0,1,1,0
233,'1',1,1,1,24.218,5.917,0.0,0.0,0.0,0.0,1,1,0
236,'1',1,1,1,14.046,0.991,0.0,0.0,0.0,0.0,1,1,0
237,'1',1,1,1,19.008,6.696,0.0,0.0,0.0,0.0,1,1,0
240,'1',1,1,1,53.79,15.285,0.0,0.0,0.0,0.0,1,1,0
241,'1',1,1,1,14.556,2.352,0.0,0.0,0.0,0.0,1,1,0
242,'1',1,1,1,17.971,10.208,0.0,0.0,0.0,0.0,1,1,0
243,'1',1,1,1,34.476,10.374,0.0,0.0,0.0,0.0,1,1,0
244,'1',1,1,1,17.39,5.038,0.0,0.0,0.0,0.0,1,1,0
245,'1',1,1,1,14.496,2.826,0.0,0.0,0.0,0.0,1,1,0
246,'1',1,1,1,21.744,3.285,0.0,0.0,0.0,0.0,1,1,0
247,'1',1,1,1,30.977,8.308,0.0,0.0,0.0,0.0,1,1,0
249,'1',1,1,1,19.057,1.932,0.0,0.0,0.0,0.0,1,1,0
250,'1',1,1,1,8.047,0.58,0.0,0.0,0.0,0.0,1,1,0
251,'1',1,1,1,11.325,2.991,0.0,0.0,0.0,0.0,1,1,0
252,'1',1,1,1,22.555,7.599,0.0,0.0,0.0,0.0,1,1,0
253,'1',1,1,1,9.837,3.614,0.0,0.0,0.0,0.0,1,1,0
255,'1',1,1,1,30.142,7.761,0.0,0.0,0.0,0.0,1,1,0
256,'1',1,1,1,22.725,8.693,0.0,0.0,0.0,0.0,1,1,0
258,'1',1,1,1,26.268,10.484,0.0,0.0,0.0,0.0,1,1,0
260,'1',1,1,1,20.746,4.349,0.0,0.0,0.0,0.0,1,1,0
261,'1',1,1,1,31.376,1.695,0.0,0.0,0.0,0.0,1,1,0
262,'1',1,1,1,25.702,9.292,0.0,0.0,0.0,0.0,1,1,0
263,'1',1,1,1,22.98,4.654,0.0,0.0,0.0,0.0,1,1,0
264,'1',1,1,1,21.855,3.441,0.0,0.0,0.0,0.0,1,1,0
267,'1',1,1,1,23.835,5.191,0.0,0.0,0.0,0.0,1,1,0
270,'1',1,1,1,28.976,6.688,0.0,0.0,0.0,0.0,1,1,0
272,'1',1,1,1,28.854,10.463,0.0,0.0,0.0,0.0,1,1,0
275,'1',1,1,1,14.508,2.464,0.0,0.0,0.0,0.0,1,1,0
276,'1',1,1,1,18.342,1.524,0.0,0.0,0.0,0.0,1,1,0
278,'1',1,1,1,16.248,2.466,0.0,0.0,0.0,0.0,1,1,0
279,'1',1,1,1,4.237,0.81,0.0,0.0,0.0,0.0,1,1,0
280,'1',1,1,1,4.714,0.411,0.0,0.0,0.0,0.0,1,1,0
281,'1',1,1,1,7.609,2.321,0.0,0.0,0.0,0.0,1,1,0
283,'1',1,1,1,11.182,2.225,0.0,0.0,0.0,0.0,1,1,0
284,'1',1,1,1,5.034,1.248,0.0,0.0,0.0,0.0,1,1,0
286,'1',1,1,1,1.746,0.429,0.0,0.0,0.0,0.0,1,1,0
287,'1',1,1,1,1.896,0.53,0.0,0.0,0.0,0.0,1,1,0
288,'1',1,1,1,10.365,2.365,0.0,0.0,0.0,0.0,1,1,0
289,'1',1,1,1,8.652,2.136,0.0,0.0,0.0,0.0,1,1,0
292,'1',1,1,1,32.416,4.697,0.0,0.0,0.0,0.0,1,1,0
293,'1',1,1,1,1.262,0.368,0.0,0.0,0.0,0.0,1,1,0
294,'1',1,1,1,4.291,0.623,0.0,0.0,0.0,0.0,1,1,0
295,'1',1,1,1,4.171,1.974,0.0,0.0,0.0,0.0,1,1,0
296,'1',1,1,1,5.15,0.745,0.0,0.0,0.0,0.0,1,1,0
298,'1',1,1,1,3.732,0.216,0.0,0.0,0.0,0.0,1,1,0
299,'1',1,1,1,5.644,0.871,0.0,0.0,0.0,0.0,1,1,0
...
0 / END OF LOAD DATA BEGIN FIXED SHUNT DATA
0 / END OF FIXED SHUNT DATA BEGIN GENERATOR DATA
1740,'1',78.605,8.779,52.66,-31.596,1.04,0,124.16,0.0,1.0,0.0,0.0,1.0,1,100.0,103.47,26.81,1,1.0,0,1.0,0,1.0,0,1.0,0,1.0
1741,'1',78.605,8.297,52.66,-31.596,1.04,0,124.16,0.0,1.0,0.0,0.0,1.0,1,100.0,103.47,50.92,1,1.0,0,1.0,0,1.0,0,1.0,0,1.0
1742,'1',78.605,7.725,52.66,-31.596,1.04,0,124.16,0.0,1.0,0.0,0.0,1.0,1,100.0,103.47,14.34,1,1.0,0,1.0,0,1.0,0,1.0,0,1.0
1743,'1',78.605,10.317,52.66,-31.596,1.04,0,124.16,0.0,1.0,0.0,0.0,1.0,1,100.0,103.47,18.78,1,1.0,0,1.0,0,1.0,0,1.0,0,1.0
1744,'1',78.605,7.792,52.66,-31.596,1.04,0,124.16,0.0,1.0,0.0,0.0,1.0,1,100.0,103.47,43.26,1,1.0,0,1.0,0,1.0,0,1.0,0,1.0
1745,'1',78.605,10.309,52.66,-31.596,1.04,0,124.16,0.0,1.0,0.0,0.0,1.0,1,100.0,103.47,28.95,1,1.0,0,1.0,0,1.0,0,1.0,0,1.0
1747,'1',25.298,-9.99,9.99,-9.99,1.04,0,39.96,0.0,1.0,0.0,0.0,1.0,1,100.0,33.3,0.0,1,1.0,0,1.0,0,1.0,0,1.0,0,1.0
1748,'1',25.298,3.897,8.468,-8.468,1.04,0,39.96,0.0,1.0,0.0,0.0,1.0,1,100.0,28.225,0.0,1,1.0,0,1.0,0,1.0,0,1.0,0,1.0
1748,'2',25.298,3.897,9.99,-9.99,1.04,0,39.96,0.0,1.0,0.0,0.0,1.0,1,100.0,33.3,0.0,1,1.0,0,1.0,0,1.0,0,1.0,0,1.0
1750,'1',21.879,8.64,8.64,-8.64,1.04,0,34.56,0.0,1.0,0.0,0.0,1.0,1,100.0,28.8,0.0,1,1.0,0,1.0,0,1.0,0,1.0,0,1.0
1751,'1',21.879,8.64,8.64,-8.64,1.04,0,34.56,0.0,1.0,0.0,0.0,1.0,1,100.0,28.8,0.0,1,1.0,0,1.0,0,1.0,0,1.0,0,1.0
1757,'1',256.94,-2.539,605.8,-363.48,1.04,1754,1560.0,0.0,1.0,0.0,0.0,1.0,1,100.0,1300.0,256.94,1,1.0,0,1.0,0,1.0,0,1.0,0,1.0
1758,'1',527.04,11.575,605.8,-363.48,1.04,1754,1560.0,0.0,1.0,0.0,0.0,1.0,1,100.0,1300.0,527.04,1,1.0,0,1.0,0,1.0,0,1.0,0,1.0
1761,'1',7.316,0.835,2.4,-2.4,1.04,0,18.96,0.0,1.0,0.0,0.0,1.0,1,100.0,8.0,0.0,1,1.0,0,1.0,0,1.0,0,1.0,0,1.0
1764,'1',14.754,4.764,4.764,-4.764,1.04,0,31.17,0.0,1.0,0.0,0.0,1.0,1,100.0,15.879,0.0,1,1.0,0,1.0,0,1.0,0,1.0,0,1.0
1764,'2',19.737,6.28,6.28,-6.28,1.04,0,31.17,0.0,1.0,0.0,0.0,1.0,1,100.0,20.935,0.0,1,1.0,0,1.0,0,1.0,0,1.0,0,1.0
1764,'3',17.374,5.55,5.55,-5.55,1.04,0,31.17,0.0,1.0,0.0,0.0,1.0,1,100.0,18.499,0.0,1,1.0,0,1.0,0,1.0,0,1.0,0,1.0
1764,'4',19.737,6.621,6.621,-6.621,1.04,0,31.17,0.0,1.0,0.0,0.0,1.0,1,100.0,22.07,0.0,1,1.0,0,1.0,0,1.0,0,1.0,0,1.0
1768,'1',46.772,3.585,75.0,-75.0,1.04,0,42.36,0.0,1.0,0.0,0.0,1.0,1,100.0,250.0,0.0,1,1.0,0,1.0,0,1.0,0,1.0,0,1.0
1768,'2',166.171,3.585,50.31,-50.31,1.04,0,42.36,0.0,1.0,0.0,0.0,1.0,1,100.0,167.699,0.0,1,1.0,0,1.0,0,1.0,0,1.0,0,1.0
1768,'3',26.495,3.585,40.328,-40.328,1.04,0,42.36,0.0,1.0,0.0,0.0,1.0,1,100.0,134.426,0.0,1,1.0,0,1.0,0,1.0,0,1.0,0,1.0
1770,'1',3.798,2.55,2.55,-1.53,1.04,0,6.0,0.0,1.0,0.0,0.0,1.0,1,100.0,5.0,0.52,1,1.0,0,1.0,0,1.0,0,1.0,0,1.0
1774,'1',2.788,0.64,1.71,-1.026,1.04,0,4.4,0.0,1.0,0.0,0.0,1.0,1,100.0,3.67,0.96,1,1.0,0,1.0,0,1.0,0,1.0,0,1.0
1774,'2',2.788,0.64,1.71,-1.026,1.04,0,4.4,0.0,1.0,0.0,0.0,1.0,1,100.0,3.67,1.63,1,1.0,0,1.0,0,1.0,0,1.0,0,1.0
1775,'1',2.788,0.597,1.71,-1.026,1.04,0,4.4,0.0,1.0,0.0,0.0,1.0,1,100.0,3.67,1.42,1,1.0,0,1.0,0,1.0,0,1.0,0,1.0
1775,'2',2.788,0.597,1.71,-1.026,1.04,0,4.4,0.0,1.0,0.0,0.0,1.0,1,100.0,3.67,0.73,1,1.0,0,1.0,0,1.0,0,1.0,0,1.0
1776,'1',2.788,0.43,1.71,-1.026,1.04,0,4.4,0.0,1.0,0.0,0.0,1.0,1,100.0,3.67,0.5,1,1.0,0,1.0,0,1.0,0,1.0,0,1.0
1776,'2',2.788,0.43,1.71,-1.026,1.04,0,4.4,0.0,1.0,0.0,0.0,1.0,1,100.0,3.67,1.21,1,1.0,0,1.0,0,1.0,0,1.0,0,1.0
1780,'1',2.887,0.552,1.14,-1.14,1.04,0,4.56,0.0,1.0,0.0,0.0,1.0,1,100.0,3.8,0.0,1,1.0,0,1.0,0,1.0,0,1.0,0,1.0
1781,'1',2.887,0.257,0.92,-0.92,1.04,0,4.56,0.0,1.0,0.0,0.0,1.0,1,100.0,3.065,0.0,1,1.0,0,1.0,0,1.0,0,1.0,0,1.0
1781,'2',2.887,0.257,1.14,-1.14,1.04,0,4.56,0.0,1.0,0.0,0.0,1.0,1,100.0,3.8,0.0,1,1.0,0,1.0,0,1.0,0,1.0,0,1.0
1782,'1',2.651,0.845,0.845,-0.845,1.04,0,4.56,0.0,1.0,0.0,0.0,1.0,1,100.0,2.816,0.0,1,1.0,0,1.0,0,1.0,0,1.0,0,1.0
1782,'2',2.887,1.06,1.06,-1.06,1.04,0,4.56,0.0,1.0,0.0,0.0,1.0,1,100.0,3.533,0.0,1,1.0,0,1.0,0,1.0,0,1.0,0,1.0
1786,'1',250.699,-9.948,153.78,-92.268,1.03,1784,396.0,0.0,1.0,0.0,0.0,1.0,1,100.0,330.0,49.13,1,1.0,0,1.0,0,1.0,0,1.0,0,1.0
1787,'1',250.699,-9.948,153.78,-92.268,1.03,1784,396.0,0.0,1.0,0.0,0.0,1.0,1,100.0,330.0,96.28,1,1.0,0,1.0,0,1.0,0,1.0,0,1.0
1788,'1',242.446,-9.948,153.78,-92.268,1.03,1784,396.0,0.0,1.0,0.0,0.0,1.0,1,100.0,330.0,91.44,1,1.0,0,1.0,0,1.0,0,1.0,0,1.0
1790,'1',22.563,7.196,7.196,-7.196,1.04,0,35.64,0.0,1.0,0.0,0.0,1.0,1,100.0,23.987,0.0,1,1.0,0,1.0,0,1.0,0,1.0,0,1.0
1790,'2',22.563,8.91,8.91,-8.91,1.04,0,35.64,0.0,1.0,0.0,0.0,1.0,1,100.0,29.7,0.0,1,1.0,0,1.0,0,1.0,0,1.0,0,1.0
1793,'1',51.599,6.51,56.26,-33.756,1.04,0,132.64,0.0,1.0,0.0,0.0,1.0,1,100.0,110.53,45.79,1,1.0,0,1.0,0,1.0,0,1.0,0,1.0
1794,'1',83.969,6.29,56.26,-33.756,1.04,0,132.64,0.0,1.0,0.0,0.0,1.0,1,100.0,110.53,47.9,1,1.0,0,1.0,0,1.0,0,1.0,0,1.0
1795,'1',45.377,8.038,56.26,-33.756,1.04,0,132.64,0.0,1.0,0.0,0.0,1.0,1,100.0,110.53,14.2,1,1.0,0,1.0,0,1.0,0,1.0,0,1.0
1796,'1',62.619,4.855,56.26,-33.756,1.04,0,132.64,0.0,1.0,0.0,0.0,1.0,1,100.0,110.53,25.13,1,1.0,0,1.0,0,1.0,0,1.0,0,1.0
1797,'1',83.969,5.764,56.26,-33.756,1.04,0,132.64,0.0,1.0,0.0,0.0,1.0,1,100.0,110.53,33.77,1,1.0,0,1.0,0,1.0,0,1.0,0,1.0
1798,'1',83.969,9.205,56.26,-33.756,1.04,0,132.64,0.0,1.0,0.0,0.0,1.0,1,100.0,110.53,27.65,1,1.0,0,1.0,0,1.0,0,1.0,0,1.0
1804,'1',49.83,10.222,15.802,-15.802,1.04,0,78.84,0.0,1.0,0.0,0.0,1.0,1,100.0,52.674,0.0,1,1.0,0,1.0,0,1.0,0,1.0,0,1.0
1805,'1',49.912,5.288,19.71,-19.71,1.04,0,78.84,0.0,1.0,0.0,0.0,1.0,1,100.0,65.7,0.0,1,1.0,0,1.0,0,1.0,0,1.0,0,1.0
1809,'1',87.365,-3.571,58.53,-35.118,1.04,0,138.0,0.0,1.0,0.0,0.0,1.0,1,100.0,115.0,25.26,1,1.0,0,1.0,0,1.0,0,1.0,0,1.0
1810,'1',87.365,-2.553,58.53,-35.118,1.04,0,138.0,0.0,1.0,0.0,0.0,1.0,1,100.0,115.0,54.87,1,1.0,0,1.0,0,1.0,0,1.0,0,1.0
1811,'1',87.365,-14.754,58.53,-40.971,1.041,1806,138.0,0.0,1.0,0.0,0.0,1.0,1,100.0,115.0,27.73,1,1.0,0,1.0,0,1.0,0,1.0,0,1.0
1812,'1',87.365,-2.349,58.53,-35.118,1.04,0,138.0,0.0,1.0,0.0,0.0,1.0,1,100.0,115.0,31.11,1,1.0,0,1.0,0,1.0,0,1.0,0,1.0
1818,'1',485.079,34.11,467.32,-280.392,1.04,1814,1523.88,0.0,1.0,0.0,0.0,1.0,1,100.0,1269.9,409.47,1,1.0,0,1.0,0,1.0,0,1.0,0,1.0
1820,'1',39.656,3.573,15.66,-15.66,1.04,0,62.64,0.0,1.0,0.0,0.0,1.0,1,100.0,52.2,0.0,1,1.0,0,1.0,0,1.0,0,1.0,0,1.0
1820,'2',39.656,3.573,15.66,-15.66,1.04,0,62.64,0.0,1.0,0.0,0.0,1.0,1,100.0,52.2,0.0,1,1.0,0,1.0,0,1.0,0,1.0,0,1.0
1820,'3',39.656,3.573,15.66,-15.66,1.04,0,62.64,0.0,1.0,0.0,0.0,1.0,1,100.0,52.2,0.0,1,1.0,0,1.0,0,1.0,0,1.0,0,1.0
1824,'1',19.678,6.254,6.254,-6.254,1.04,0,32.4,0.0,1.0,0.0,0.0,1.0,1,100.0,20.847,0.0,1,1.0,0,1.0,0,1.0,0,1.0,1,1.0
1826,'1',12.801,4.437,4.437,-4.437,1.04,0,20.22,0.0,1.0,0.0,0.0,1.0,1,100.0,14.789,0.0,1,1.0,0,1.0,0,1.0,0,1.0,0,1.0
1826,'2',7.696,2.528,2.528,-2.528,1.04,0,20.22,0.0,1.0,0.0,0.0,1.0,1,100.0,8.425,0.0,1,1.0,0,1.0,0,1.0,0,1.0,0,1.0
1829,'1',24.82,7.899,7.899,-7.899,1.04,0,41.904,0.0,1.0,0.0,0.0,1.0,1,100.0,26.331,0.0,1,1.0,0,1.0,0,1.0,0,1.0,0,1.0
1829,'2',26.528,10.476,10.476,-10.476,1.04,0,41.904,0.0,1.0,0.0,0.0,1.0,1,100.0,34.92,0.0,1,1.0,0,1.0,0,1.0,0,1.0,0,1.0
1830,'1',26.528,-2.971,10.476,-10.476,1.04,0,41.904,0.0,1.0,0.0,0.0,1.0,1,100.0,34.92,0.0,1,1.0,0,1.0,0,1.0,0,1.0,0,1.0
1830,'2',26.528,-2.971,8.656,-8.656,1.04,0,41.904,0.0,1.0,0.0,0.0,1.0,1,100.0,28.854,0.0,1,1.0,0,1.0,0,1.0,0,1.0,0,1.0
1830,'3',26.528,-2.971,10.476,-10.476,1.04,0,41.904,0.0,1.0,0.0,0.0,1.0,1,100.0,34.92,0.0,1,1.0,0,1.0,0,1.0,0,1.0,0,1.0
1832,'1',28.64,6.922,11.31,-11.31,1.04,0,45.24,0.0,1.0,0.0,0.0,1.0,1,100.0,37.7,0.0,1,1.0,0,1.0,0,1.0,0,1.0,0,1.0
1832,'2',28.64,6.922,11.31,-11.31,1.04,0,45.24,0.0,1.0,0.0,0.0,1.0,1,100.0,37.7,0.0,1,1.0,0,1.0,0,1.0,0,1.0,0,1.0
1832,'3',24.812,6.922,7.933,-7.933,1.04,0,45.24,0.0,1.0,0.0,0.0,1.0,1,100.0,26.444,0.0,1,1.0,0,1.0,0,1.0,0,1.0,0,1.0
1832,'4',28.64,6.922,11.31,-11.31,1.04,0,45.24,0.0,1.0,0.0,0.0,1.0,1,100.0,37.7,0.0,1,1.0,0,1.0,0,1.0,0,1.0,0,1.0
1838,'1',152.158,0.119,126.86,-76.116,1.04,0,299.07,0.0,1.0,0.0,0.0,1.0,1,100.0,249.22,100.54,1,1.0,0,1.0,0,1.0,0,1.0,0,1.0
1839,'1',189.328,-11.991,126.86,-76.116,1.04,1835,299.07,0.0,1.0,0.0,0.0,1.0,1,100.0,249.22,26.43,1,1.0,0,1.0,0,1.0,0,1.0,0,1.0
1840,'1',189.328,1.338,126.86,-76.116,1.04,0,299.07,0.0,1.0,0.0,0.0,1.0,1,100.0,249.22,109.59,1,1.0,0,1.0,0,1.0,0,1.0,0,1.0
1841,'1',189.328,-0.913,126.86,-76.116,1.04,0,299.07,0.0,1.0,0.0,0.0,1.0,1,100.0,249.22,106.81,1,1.0,0,1.0,0,1.0,0,1.0,0,1.0
1845,'1',143.787,0.811,96.34,-57.804,1.04,0,227.12,0.0,1.0,0.0,0.0,1.0,1,100.0,189.27,24.72,1,1.0,0,1.0,0,1.0,0,1.0,0,1.0
1846,'1',143.787,0.751,96.34,-57.804,1.04,0,227.12,0.0,1.0,0.0,0.0,1.0,1,100.0,189.27,33.63,1,1.0,0,1.0,0,1.0,0,1.0,0,1.0
1847,'1',143.787,1.604,96.34,-57.804,1.04,0,227.12,0.0,1.0,0.0,0.0,1.0,1,100.0,189.27,40.85,1,1.0,0,1.0,0,1.0,0,1.0,0,1.0
1851,'1',180.556,-5.108,120.97,-72.582,1.04,0,285.2,0.0,1.0,0.0,0.0,1.0,1,100.0,237.67,82.61,1,1.0,0,1.0,0,1.0,0,1.0,0,1.0
1852,'1',180.556,-3.704,120.97,-72.582,1.041,1850,285.2,0.0,1.0,0.0,0.0,1.0,1,100.0,237.67,85.08,1,1.0,0,1.0,0,1.0,0,1.0,0,1.0
1853,'1',180.556,-3.704,120.97,-72.582,1.041,1850,285.2,0.0,1.0,0.0,0.0,1.0,1,100.0,237.67,27.85,1,1.0,0,1.0,0,1.0,0,1.0,0,1.0
1854,'1',180.556,-3.704,120.97,-72.582,1.041,1850,285.2,0.0,1.0,0.0,0.0,1.0,1,100.0,237.67,109.63,1,1.0,0,1.0,0,1.0,0,1.0,0,1.0
1855,'1',180.556,-2.912,120.97,-72.582,1.04,0,285.2,0.0,1.0,0.0,0.0,1.0,1,100.0,237.67,83.36,1,1.0,0,1.0,0,1.0,0,1.0,0,1.0
1856,'1',180.556,-3.704,120.97,-72.582,1.041,1850,285.2,0.0,1.0,0.0,0.0,1.0,1,100.0,237.67,55.32,1,1.0,0,1.0,0,1.0,0,1.0,0,1.0
1858,'1',13.674,1.092,9.16,-5.496,1.04,0,21.6,0.0,1.0,0.0,0.0,1.0,1,100.0,18.0,8.14,1,1.0,0,1.0,0,1.0,0,1.0,0,1.0
1864,'1',129.247,6.668,86.6,-60.62,1.04,1861,204.16,0.0,1.0,0.0,0.0,1.0,1,100.0,170.13,75.2,1,1.0,0,1.0,0,1.0,0,1.0,0,1.0
1865,'1',129.247,6.668,86.6,-60.62,1.04,1861,204.16,0.0,1.0,0.0,0.0,1.0,1,100.0,170.13,24.19,1,1.0,0,1.0,0,1.0,0,1.0,0,1.0
1866,'1',129.247,0.734,86.6,-51.96,1.04,0,204.16,0.0,1.0,0.0,0.0,1.0,1,100.0,170.13,78.63,1,1.0,0,1.0,0,1.0,0,1.0,0,1.0
1867,'1',129.247,6.668,86.6,-60.62,1.04,1861,204.16,0.0,1.0,0.0,0.0,1.0,1,100.0,170.13,56.6,1,1.0,0,1.0,0,1.0,0,1.0,0,1.0
1868,'1',129.247,6.668,86.6,-51.96,1.04,1861,204.16,0.0,1.0,0.0,0.0,1.0,1,100.0,170.13,43.7,1,1.0,0,1.0,0,1.0,0,1.0,0,1.0
1869,'1',129.247,-0.703,86.6,-51.96,1.04,0,204.16,0.0,1.0,0.0,0.0,1.0,1,100.0,170.13,65.0,1,1.0,0,1.0,0,1.0,0,1.0,0,1.0
1871,'1',8.736,-1.193,3.078,-3.078,1.04,0,13.8,0.0,1.0,0.0,0.0,1.0,1,100.0,10.261,0.0,1,1.0,0,1.0,0,1.0,0,1.0,0,1.0
1871,'2',8.736,-1.193,3.324,-3.324,1.04,0,13.8,0.0,1.0,0.0,0.0,1.0,1,100.0,11.079,0.0,1,1.0,0,1.0,0,1.0,0,1.0,0,1.0
1873,'1',12.611,4.98,4.98,-4.98,1.04,0,19.92,0.0,1.0,0.0,0.0,1.0,1,100.0,16.6,0.0,1,1.0,0,1.0,0,1.0,0,1.0,0,1.0
1873,'2',12.611,4.98,4.98,-4.98,1.04,0,19.92,0.0,1.0,0.0,0.0,1.0,1,100.0,16.6,0.0,1,1.0,0,1.0,0,1.0,0,1.0,0,1.0
1874,'1',12.611,4.667,4.667,-4.667,1.04,0,19.92,0.0,1.0,0.0,0.0,1.0,1,100.0,15.556,0.0,1,1.0,0,1.0,0,1.0,0,1.0,0,1.0
1876,'1',21.879,8.64,8.64,-8.64,1.04,0,34.56,0.0,1.0,0.0,0.0,1.0,1,100.0,28.8,0.0,1,1.0,0,1.0,0,1.0,0,1.0,0,1.0
1880,'1',8.881,2.088,2.719,-2.719,1.04,0,5.04,0.0,1.0,0.0,0.0,1.0,1,100.0,9.063,0.0,1,1.0,0,1.0,0,1.0,0,1.0,0,1.0
1885,'1',325.453,4.937,127.901,-127.901,1.038,1882,514.08,0.0,1.0,0.0,0.0,1.0,1,100.0,426.336,0.0,1,1.0,0,1.0,0,1.0,0,1.0,0,1.0
1886,'1',325.453,4.937,128.52,-128.52,1.038,1882,514.08,0.0,1.0,0.0,0.0,1.0,1,100.0,428.4,0.0,1,1.0,0,1.0,0,1.0,0,1.0,0,1.0
1887,'1',203.693,4.937,66.671,-66.671,1.038,1882,514.08,0.0,1.0,0.0,0.0,1.0,1,100.0,222.236,0.0,1,1.0,0,1.0,0,1.0,0,1.0,0,1.0
1888,'1',260.326,4.937,83.661,-83.661,1.038,1882,514.08,0.0,1.0,0.0,0.0,1.0,1,100.0,278.868,0.0,1,1.0,0,1.0,0,1.0,0,1.0,0,1.0
1890,'1',34.186,-13.5,13.5,-13.5,1.04,0,54.0,0.0,1.0,0.0,0.0,1.0,1,100.0,45.0,0.0,1,1.0,0,1.0,0,1.0,0,1.0,0,1.0
1891,'1',34.186,8.915,10.875,-10.875,1.04,0,54.0,0.0,1.0,0.0,0.0,1.0,1,100.0,36.251,0.0,1,1.0,0,1.0,0,1.0,0,1.0,0,1.0
1891,'2',29.081,8.915,9.308,-9.308,1.04,0,54.0,0.0,1.0,0.0,0.0,1.0,1,100.0,31.028,0.0,1,1.0,0,1.0,0,1.0,0,1.0,0,1.0
1893,'1',10.074,3.147,3.147,-3.147,1.04,0,11.52,0.0,1.0,0.0,0.0,1.0,1,100.0,10.49,0.0,1,1.0,0,1.0,0,1.0,0,1.0,0,1.0
1898,'1',134.817,20.399,146.23,-87.738,1.04,1895,376.56,0.0,1.0,0.0,0.0,1.0,1,100.0,313.8,106.65,1,1.0,0,1.0,0,1.0,0,1.0,0,1.0
1899,'1',159.737,20.399,146.23,-87.738,1.04,1895,376.56,0.0,1.0,0.0,0.0,1.0,1,100.0,313.8,156.49,1,1.0,0,1.0,0,1.0,0,1.0,0,1.0
1900,'1',145.052,20.399,146.23,-87.738,1.04,1895,376.56,0.0,1.0,0.0,0.0,1.0,1,100.0,313.8,127.12,1,1.0,0,1.0,0,1.0,0,1.0,0,1.0
1901,'1',123.852,20.399,146.23,-87.738,1.04,1895,376.56,0.0,1.0,0.0,0.0,1.0,1,100.0,313.8,84.72,1,1.0,0,1.0,0,1.0,0,1.0,0,1.0
1904,'1',12.238,3.905,3.905,-3.905,1.04,0,21.6,0.0,1.0,0.0,0.0,1.0,1,100.0,13.017,0.0,1,1.0,0,1.0,0,1.0,0,1.0,0,1.0
1904,'2',10.41,3.357,3.357,-3.357,1.04,0,21.6,0.0,1.0,0.0,0.0,1.0,1,100.0,11.19,0.0,1,1.0,0,1.0,0,1.0,0,1.0,0,1.0
1904,'3',13.674,4.588,4.588,-4.588,1.04,0,21.6,0.0,1.0,0.0,0.0,1.0,1,100.0,15.293,0.0,1,1.0,0,1.0,0,1.0,0,1.0,0,1.0
1906,'1',9.116,3.6,3.6,-3.6,1.04,0,14.4,0.0,1.0,0.0,0.0,1.0,1,100.0,12.0,0.0,1,1.0,0,1.0,0,1.0,0,1.0,0,1.0
1907,'1',9.116,3.6,3.6,-3.6,1.04,0,14.4,0.0,1.0,0.0,0.0,1.0,1,100.0,12.0,0.0,1,1.0,0,1.0,0,1.0,0,1.0,0,1.0
1907,'2',8.443,2.689,2.689,-2.689,1.04,0,14.4,0.0,1.0,0.0,0.0,1.0,1,100.0,8.962,0.0,1,1.0,0,1.0,0,1.0,0,1.0,0,1.0
1910,'1',24.87,7.928,7.928,-7.928,1.04,0,43.2,0.0,1.0,0.0,0.0,1.0,1,100.0,26.428,0.0,1,1.0,0,1.0,0,1.0,0,1.0,0,1.0
1910,'2',27.349,10.8,10.8,-10.8,1.04,0,43.2,0.0,1.0,0.0,0.0,1.0,1,100.0,36.0,0.0,1,1.0,0,1.0,0,1.0,0,1.0,0,1.0
1913,'1',3.419,2.049,2.29,-1.374,1.04,0,5.4,0.0,1.0,0.0,0.0,1.0,1,100.0,4.5,1.94,1,1.0,0,1.0,0,1.0,0,1.0,0,1.0
1916,'1',30.388,1.219,10.798,-10.798,1.04,0,48.0,0.0,1.0,0.0,0.0,1.0,1,100.0,35.992,0.0,1,1.0,0,1.0,0,1.0,0,1.0,0,1.0
1916,'2',30.388,1.219,11.492,-11.492,1.04,0,48.0,0.0,1.0,0.0,0.0,1.0,1,100.0,38.307,0.0,1,1.0,0,1.0,0,1.0,0,1.0,0,1.0
1916,'3',30.388,1.219,12.0,-12.0,1.04,0,48.0,0.0,1.0,0.0,0.0,1.0,1,100.0,40.0,0.0,1,1.0,0,1.0,0,1.0,0,1.0,0,1.0
1916,'4',25.823,1.219,8.266,-8.266,1.04,0,48.0,0.0,1.0,0.0,0.0,1.0,1,100.0,27.555,0.0,1,1.0,0,1.0,0,1.0,0,1.0,0,1.0
1916,'5',30.388,1.219,12.0,-12.0,1.04,0,48.0,0.0,1.0,0.0,0.0,1.0,1,100.0,40.0,0.0,1,1.0,0,1.0,0,1.0,0,1.0,0,1.0
1916,'6',30.388,1.219,12.0,-12.0,1.04,0,48.0,0.0,1.0,0.0,0.0,1.0,1,100.0,40.0,0.0,1,1.0,0,1.0,0,1.0,0,1.0,0,1.0
1922,'1',320.52,-132.555,442.7,-265.62,1.031,1919,1140.0,0.0,1.0,0.0,0.0,1.0,1,100.0,950.0,320.52,1,1.0,0,1.0,0,1.0,0,1.0,0,1.0
1927,'1',24.277,3.118,7.781,-7.781,1.04,0,45.99,0.0,1.0,0.0,0.0,1.0,1,100.0,25.937,0.0,1,1.0,0,1.0,0,1.0,0,1.0,0,1.0
1927,'2',29.109,3.118,11.496,-11.496,1.04,0,45.99,0.0,1.0,0.0,0.0,1.0,1,100.0,38.32,0.0,1,1.0,0,1.0,0,1.0,0,1.0,0,1.0
1928,'1',26.993,5.309,8.596,-8.596,1.04,0,45.99,0.0,1.0,0.0,0.0,1.0,1,100.0,28.652,0.0,1,1.0,0,1.0,0,1.0,0,1.0,0,1.0
1929,'1',29.109,4.582,11.496,-11.496,1.04,0,45.99,0.0,1.0,0.0,0.0,1.0,1,100.0,38.32,0.0,1,1.0,0,1.0,0,1.0,0,1.0,0,1.0
1931,'1',1.933,0.614,0.614,-0.614,1.04,0,3.18,0.0,1.0,0.0,0.0,1.0,1,100.0,2.047,0.0,1,1.0,0,1.0,0,1.0,0,1.0,0,1.0
1931,'2',2.013,0.781,0.795,-0.795,1.04,0,3.18,0.0,1.0,0.0,0.0,1.0,1,100.0,2.65,0.0,1,1.0,0,1.0,0,1.0,0,1.0,0,1.0
1932,'1',2.013,0.665,0.667,-0.667,1.04,0,3.18,0.0,1.0,0.0,0.0,1.0,1,100.0,2.224,0.0,1,1.0,0,1.0,0,1.0,0,1.0,0,1.0
1932,'2',2.013,0.665,0.795,-0.795,1.04,0,3.18,0.0,1.0,0.0,0.0,1.0,1,100.0,2.65,0.0,1,1.0,0,1.0,0,1.0,0,1.0,0,1.0
1937,'1',927.206,44.137,449.14,-269.484,1.036,1934,1464.6,0.0,1.0,0.0,0.0,1.0,1,100.0,1220.5,473.43,1,1.0,0,1.0,0,1.0,0,1.0,0,1.0
1938,'1',927.206,44.137,449.14,-269.484,1.036,1934,1464.6,0.0,1.0,0.0,0.0,1.0,1,100.0,1220.5,379.66,1,1.0,0,1.0,0,1.0,0,1.0,0,1.0
1940,'1',17.359,6.855,6.855,-6.855,1.04,0,27.42,0.0,1.0,0.0,0.0,1.0,1,100.0,22.85,0.0,1,1.0,0,1.0,0,1.0,0,1.0,0,1.0
1941,'1',17.359,6.855,6.855,-6.855,1.04,0,27.42,0.0,1.0,0.0,0.0,1.0,1,100.0,22.85,0.0,1,1.0,0,1.0,0,1.0,0,1.0,0,1.0
1943,'1',1.367,0.84,0.84,-0.504,1.04,0,2.16,0.0,1.0,0.0,0.0,1.0,1,100.0,1.8,0.26,1,1.0,0,1.0,0,1.0,0,1.0,0,1.0
1943,'2',1.367,0.84,0.84,-0.504,1.04,0,2.16,0.0,1.0,0.0,0.0,1.0,1,100.0,1.8,0.87,1,1.0,0,1.0,0,1.0,0,1.0,0,1.0
1946,'1',0.354,0.114,0.114,-0.114,1.04,0,0.72,0.0,1.0,0.0,0.0,1.0,1,100.0,0.38,0.0,1,1.0,0,1.0,0,1.0,0,1.0,1,1.0
1946,'2',0.274,0.09,0.09,-0.09,1.04,0,0.72,0.0,1.0,0.0,0.0,1.0,1,100.0,0.3,0.0,1,1.0,0,1.0,0,1.0,0,1.0,1,1.0
1947,'1',0.297,0.097,0.097,-0.097,1.04,0,0.72,0.0,1.0,0.0,0.0,1.0,1,100.0,0.323,0.0,1,1.0,0,1.0,0,1.0,0,1.0,1,1.0
1952,'1',37.67,10.599,132.03,-79.218,1.037,1949,340.0,0.0,1.0,0.0,0.0,1.0,1,100.0,283.33,37.67,1,1.0,0,1.0,0,1.0,0,1.0,0,1.0
1953,'1',33.18,10.599,132.03,-79.218,1.037,1949,340.0,0.0,1.0,0.0,0.0,1.0,1,100.0,283.33,33.18,1,1.0,0,1.0,0,1.0,0,1.0,0,1.0
1954,'1',75.56,10.599,132.03,-79.218,1.037,1949,340.0,0.0,1.0,0.0,0.0,1.0,1,100.0,283.33,75.56,1,1.0,0,1.0,0,1.0,0,1.0,0,1.0
1955,'1',81.83,10.599,132.03,-79.218,1.037,1949,340.0,0.0,1.0,0.0,0.0,1.0,1,100.0,283.33,81.83,1,1.0,0,1.0,0,1.0,0,1.0,0,1.0
1956,'1',89.23,10.599,132.03,-79.218,1.037,1949,340.0,0.0,1.0,0.0,0.0,1.0,1,100.0,283.33,89.23,1,1.0,0,1.0,0,1.0,0,1.0,0,1.0
1957,'1',34.64,10.599,132.03,-79.218,1.037,1949,340.0,0.0,1.0,0.0,0.0,1.0,1,100.0,283.33,34.64,1,1.0,0,1.0,0,1.0,0,1.0,0,1.0
1960,'1',3.798,2.55,2.55,-1.53,1.04,0,6.0,0.0,1.0,0.0,0.0,1.0,1,100.0,5.0,2.02,1,1.0,0,1.0,0,1.0,0,1.0,0,1.0
1964,'1',25.64,0.542,10.125,-10.125,1.04,0,40.5,0.0,1.0,0.0,0.0,1.0,1,100.0,33.75,0.0,1,1.0,0,1.0,0,1.0,0,1.0,0,1.0
1964,'2',23.978,0.542,7.632,-7.632,1.04,0,40.5,0.0,1.0,0.0,0.0,1.0,1,100.0,25.439,0.0,1,1.0,0,1.0,0,1.0,0,1.0,0,1.0
1965,'1',25.64,0.614,9.76,-9.76,1.04,0,40.5,0.0,1.0,0.0,0.0,1.0,1,100.0,32.533,0.0,1,1.0,0,1.0,0,1.0,0,1.0,0,1.0
1965,'2',25.64,0.614,10.125,-10.125,1.04,0,40.5,0.0,1.0,0.0,0.0,1.0,1,100.0,33.75,0.0,1,1.0,0,1.0,0,1.0,0,1.0,0,1.0
1967,'1',3.95,2.65,2.65,-1.59,1.04,0,6.24,0.0,1.0,0.0,0.0,1.0,1,100.0,5.2,0.68,1,1.0,0,1.0,0,1.0,0,1.0,0,1.0
1967,'2',3.95,2.65,2.65,-1.59,1.04,0,6.24,0.0,1.0,0.0,0.0,1.0,1,100.0,5.2,1.39,1,1.0,0,1.0,0,1.0,0,1.0,0,1.0
1970,'1',2.431,1.63,1.63,-0.978,1.04,0,3.84,0.0,1.0,0.0,0.0,1.0,1,100.0,3.2,0.58,1,1.0,0,1.0,0,1.0,0,1.0,0,1.0
1972,'1',2.788,1.025,1.71,-1.026,1.04,0,4.4,0.0,1.0,0.0,0.0,1.0,1,100.0,3.67,1.46,1,1.0,0,1.0,0,1.0,0,1.0,0,1.0
1972,'2',2.788,1.025,1.71,-1.026,1.04,0,4.4,0.0,1.0,0.0,0.0,1.0,1,100.0,3.67,1.08,1,1.0,0,1.0,0,1.0,0,1.0,0,1.0
1973,'1',2.788,0.912,1.71,-1.026,1.04,0,4.4,0.0,1.0,0.0,0.0,1.0,1,100.0,3.67,1.15,1,1.0,0,1.0,0,1.0,0,1.0,0,1.0
1973,'2',2.788,0.912,1.71,-1.026,1.04,0,4.4,0.0,1.0,0.0,0.0,1.0,1,100.0,3.67,0.83,1,1.0,0,1.0,0,1.0,0,1.0,0,1.0
1974,'1',2.788,0.596,1.71,-1.026,1.04,0,4.4,0.0,1.0,0.0,0.0,1.0,1,100.0,3.67,0.9,1,1.0,0,1.0,0,1.0,0,1.0,0,1.0
1974,'2',2.788,0.596,1.71,-1.026,1.04,0,4.4,0.0,1.0,0.0,0.0,1.0,1,100.0,3.67,1.76,1,1.0,0,1.0,0,1.0,0,1.0,0,1.0
1977,'1',29.248,3.09,11.55,-11.55,1.04,0,46.2,0.0,1.0,0.0,0.0,1.0,1,100.0,38.5,0.0,1,1.0,0,1.0,0,1.0,0,1.0,0,1.0
1979,'1',18.992,11.65,11.65,-6.99,1.04,0,30.0,0.0,1.0,0.0,0.0,1.0,1,100.0,25.0,7.45,1,1.0,0,1.0,0,1.0,0,1.0,0,1.0
1981,'1',153.055,-14.476,102.55,-61.53,1.042,1980,241.76,0.0,1.0,0.0,0.0,1.0,1,100.0,201.47,97.56,1,1.0,0,1.0,0,1.0,0,1.0,0,1.0
1982,'1',118.825,-14.476,102.55,-61.53,1.042,1980,241.76,0.0,1.0,0.0,0.0,1.0,1,100.0,201.47,53.38,1,1.0,0,1.0,0,1.0,0,1.0,0,1.0
1983,'1',94.605,-5.586,102.55,-61.53,1.04,0,241.76,0.0,1.0,0.0,0.0,1.0,1,100.0,201.47,84.57,1,1.0,0,1.0,0,1.0,0,1.0,0,1.0
1985,'1',21.271,8.4,8.4,-8.4,1.04,0,33.6,0.0,1.0,0.0,0.0,1.0,1,100.0,28.0,0.0,1,1.0,0,1.0,0,1.0,0,1.0,0,1.0
1987,'1',7.855,2.37,2.37,-2.37,1.04,0,1.26,0.0,1.0,0.0,0.0,1.0,1,100.0,7.9,0.0,1,1.0,0,1.0,0,1.0,0,1.0,0,1.0
1987,'2',10.805,3.255,3.255,-3.255,1.04,0,1.26,0.0,1.0,0.0,0.0,1.0,1,100.0,10.85,0.0,1,1.0,0,1.0,0,1.0,0,1.0,0,1.0
1993,'1',19.691,1.388,7.776,-7.776,1.04,0,31.11,0.0,1.0,0.0,0.0,1.0,1,100.0,25.92,0.0,1,1.0,0,1.0,0,1.0,0,1.0,0,1.0
1993,'2',17.039,1.388,5.448,-5.448,1.04,0,31.11,0.0,1.0,0.0,0.0,1.0,1,100.0,18.161,0.0,1,1.0,0,1.0,0,1.0,0,1.0,0,1.0
1994,'1',19.691,3.253,7.776,-7.776,1.04,0,31.11,0.0,1.0,0.0,0.0,1.0,1,100.0,25.92,0.0,1,1.0,0,1.0,0,1.0,0,1.0,0,1.0
1994,'2',19.691,3.253,7.776,-7.776,1.04,0,31.11,0.0,1.0,0.0,0.0,1.0,1,100.0,25.92,0.0,1,1.0,0,1.0,0,1.0,0,1.0,0,1.0
1996,'1',22.32,-8.214,13.69,-8.214,1.04,1995,100.0,0.0,1.0,0.0,0.0,1.0,1,100.0,29.38,6.11,1,1.0,0,1.0,0,1.0,0,1.0,0,1.0
1997,'1',22.32,13.457,13.69,-8.214,1.04,0,35.26,0.0,1.0,0.0,0.0,1.0,1,100.0,29.38,3.15,1,1.0,0,1.0,0,1.0,0,1.0,0,1.0
1997,'2',22.32,13.457,13.69,-8.214,1.04,0,35.26,0.0,1.0,0.0,0.0,1.0,1,100.0,29.38,5.59,1,1.0,0,1.0,0,1.0,0,1.0,0,1.0
1997,'3',22.32,13.457,13.69,-8.214,1.04,0,35.26,0.0,1.0,0.0,0.0,1.0,1,100.0,29.38,13.28,1,1.0,0,1.0,0,1.0,0,1.0,0,1.0
1999,'1',22.32,-0.254,13.69,-8.214,1.04,0,35.26,0.0,1.0,0.0,0.0,1.0,1,100.0,29.38,5.04,1,1.0,0,1.0,0,1.0,0,1.0,0,1.0
1999,'2',22.32,-0.254,13.69,-8.214,1.04,0,35.26,0.0,1.0,0.0,0.0,1.0,1,100.0,29.38,4.0,1,1.0,0,1.0,0,1.0,0,1.0,0,1.0
2001,'1',1.519,0.93,0.93,-0.558,1.04,0,2.4,0.0,1.0,0.0,0.0,1.0,1,100.0,2.0,0.95,1,1.0,0,1.0,0,1.0,0,1.0,0,1.0
2001,'2',1.519,0.93,0.93,-0.558,1.04,0,2.4,0.0,1.0,0.0,0.0,1.0,1,100.0,2.0,0.36,1,1.0,0,1.0,0,1.0,0,1.0,0,1.0
2001,'3',1.519,0.93,0.93,-0.558,1.04,0,2.4,0.0,1.0,0.0,0.0,1.0,1,100.0,2.0,0.59,1,1.0,0,1.0,0,1.0,0,1.0,0,1.0
2001,'4',1.519,0.93,0.93,-0.558,1.04,0,2.4,0.0,1.0,0.0,0.0,1.0,1,100.0,2.0,0.48,1,1.0,0,1.0,0,1.0,0,1.0,0,1.0
2001,'5',1.519,0.93,0.93,-0.558,1.04,0,2.4,0.0,1.0,0.0,0.0,1.0,1,100.0,2.0,0.66,1,1.0,0,1.0,0,1.0,0,1.0,0,1.0
2003,'1',12.003,-0.288,3.912,-3.912,1.04,0,18.96,0.0,1.0,0.0,0.0,1.0,1,100.0,13.041,0.0,1,1.0,0,1.0,0,1.0,0,1.0,0,1.0
2005,'1',35.554,-0.34,11.43,-11.43,1.04,0,56.16,0.0,1.0,0.0,0.0,1.0,1,100.0,38.101,0.0,1,1.0,0,1.0,0,1.0,0,1.0,0,1.0
2006,'1',26.4,-7.24,8.528,-8.528,1.04,0,56.16,0.0,1.0,0.0,0.0,1.0,1,100.0,28.425,0.0,1,1.0,0,1.0,0,1.0,0,1.0,0,1.0
2009,'1',30.312,10.429,10.429,-10.429,1.04,0,47.88,0.0,1.0,0.0,0.0,1.0,1,100.0,34.763,0.0,1,1.0,0,1.0,0,1.0,0,1.0,0,1.0
2010,'1',11.216,10.381,10.381,-10.381,1.04,0,47.88,0.0,1.0,0.0,0.0,1.0,1,100.0,34.604,0.0,1,1.0,0,1.0,0,1.0,0,1.0,0,1.0
2010,'2',30.312,11.633,11.633,-11.633,1.04,0,47.88,0.0,1.0,0.0,0.0,1.0,1,100.0,38.776,0.0,1,1.0,0,1.0,0,1.0,0,1.0,0,1.0
2010,'3',22.036,7.129,7.129,-7.129,1.04,0,47.88,0.0,1.0,0.0,0.0,1.0,1,100.0,23.763,0.0,1,1.0,0,1.0,0,1.0,0,1.0,0,1.0
2014,'1',103.69,9.324,115.35,-69.21,1.04,2011,297.04,0.0,1.0,0.0,0.0,1.0,1,100.0,247.53,103.69,1,1.0,0,1.0,0,1.0,0,1.0,0,1.0
2015,'1',133.079,-0.036,115.35,-69.21,1.04,0,297.04,0.0,1.0,0.0,0.0,1.0,1,100.0,247.53,27.66,1,1.0,0,1.0,0,1.0,0,1.0,0,1.0
2016,'1',188.047,9.324,115.35,-69.21,1.04,2011,297.04,0.0,1.0,0.0,0.0,1.0,1,100.0,247.53,112.93,1,1.0,0,1.0,0,1.0,0,1.0,0,1.0
2017,'1',188.047,9.324,115.35,-69.21,1.04,2011,297.04,0.0,1.0,0.0,0.0,1.0,1,100.0,247.53,48.25,1,1.0,0,1.0,0,1.0,0,1.0,0,1.0
2018,'1',90.677,9.324,115.35,-69.21,1.04,2011,297.04,0.0,1.0,0.0,0.0,1.0,1,100.0,247.53,52.79,1,1.0,0,1.0,0,1.0,0,1.0,0,1.0
2019,'1',96.567,9.324,115.35,-69.21,1.04,2011,297.04,0.0,1.0,0.0,0.0,1.0,1,100.0,247.53,64.57,1,1.0,0,1.0,0,1.0,0,1.0,0,1.0
0 / END OF GENERATOR DATA BEGIN BRANCH DATA
1,95,'1',0.04327,0.10271,0.00256,71.7,71.7,71.7,0.0,0.0,0.0,0.0,1,1,10.87,1,1.0,0,1.0,0,1.0,0,1.0
2,1,'1',0.03074,0.08122,0.00134,69.3,69.3,69.3,0.0,0.0,0.0,0.0,1,1,7.35,1,1.0,0,1.0,0,1.0,0,1.0
3,53,'1',0.02438,0.05724,0.00059,44.8,44.8,44.8,0.0,0.0,0.0,0.0,1,1,4.52,1,1.0,0,1.0,0,1.0,0,1.0
3,67,'1',0.05612,0.17261,0.00395,47.7,47.7,47.7,0.0,0.0,0.0,0.0,1,1,14.89,1,1.0,0,1.0,0,1.0,0,1.0
4,5,'1',0.0003,0.00107,0.0,82.8,82.8,82.8,0.0,0.0,0.0,0.0,1,1,0.0,1,1.0,0,1.0,0,1.0,0,1.0
4,191,'1',0.01607,0.04144,0.01127,54.8,54.8,54.8,0.0,0.0,0.0,0.0,1,1,11.98,1,1.0,0,1.0,0,1.0,0,1.0
4,192,'1',0.05254,0.16625,0.00469,33.0,33.0,33.0,0.0,0.0,0.0,0.0,1,1,15.2,1,1.0,0,1.0,0,1.0,0,1.0
4,201,'1',0.13401,0.31389,0.00527,58.2,58.2,58.2,0.0,0.0,0.0,0.0,1,1,22.58,1,1.0,0,1.0,0,1.0,0,1.0
4,207,'1',0.10204,0.20536,0.00623,45.0,45.0,45.0,0.0,0.0,0.0,0.0,1,1,19.52,1,1.0,0,1.0,0,1.0,0,1.0
4,210,'1',0.05588,0.09338,0.00812,39.0,39.0,39.0,0.0,0.0,0.0,0.0,1,1,14.38,1,1.0,0,1.0,0,1.0,0,1.0
4,276,'1',0.10507,0.22654,0.00602,62.8,62.8,62.8,0.0,0.0,0.0,0.0,1,1,20.02,1,1.0,0,1.0,0,1.0,0,1.0
4,354,'1',0.03809,0.09277,0.00129,54.6,54.6,54.6,0.0,0.0,0.0,0.0,1,1,7.98,1,1.0,0,1.0,0,1.0,0,1.0
6,4,'1',0.02589,0.06365,0.00135,66.2,66.2,66.2,0.0,0.0,0.0,0.0,1,1,5.75,1,1.0,0,1.0,0,1.0,0,1.0
6,124,'1',0.03242,0.09724,0.00154,62.3,62.3,62.3,0.0,0.0,0.0,0.0,1,1,7.29,1,1.0,0,1.0,0,1.0,0,1.0
6,191,'1',0.04859,0.10302,0.0091,58.3,58.3,58.3,0.0,0.0,0.0,0.0,1,1,17.08,1,1.0,0,1.0,0,1.0,0,1.0
7,9,'1',0.00021,0.00114,0.0,414.0,414.0,414.0,0.0,0.0,0.0,0.0,1,1,0.0,1,1.0,0,1.0,0,1.0,0,1.0
8,195,'1',0.00986,0.02697,0.00199,53.1,53.1,53.1,0.0,0.0,0.0,0.0,1,1,4.01,1,1.0,0,1.0,0,1.0,0,1.0
8,196,'1',0.00814,0.01812,0.00374,130.2,130.2,130.2,0.0,0.0,0.0,0.0,1,1,4.54,1,1.0,0,1.0,0,1.0,0,1.0
8,330,'1',0.01447,0.03495,0.00027,57.1,57.1,57.1,0.0,0.0,0.0,0.0,1,1,2.54,1,1.0,0,1.0,0,1.0,0,1.0
9,13,'1',0.00229,0.01313,0.00106,246.1,246.1,246.1,0.0,0.0,0.0,0.0,1,1,2.84,1,1.0,0,1.0,0,1.0,0,1.0
10,173,'1',0.00409,0.02949,0.00252,183.2,183.2,183.2,0.0,0.0,0.0,0.0,1,1,6.39,1,1.0,0,1.0,0,1.0,0,1.0
11,194,'1',0.02793,0.07798,0.00316,53.8,53.8,53.8,0.0,0.0,0.0,0.0,1,1,9.97,1,1.0,0,1.0,0,1.0,0,1.0
11,426,'1',0.00977,0.02571,0.00188,62.4,62.4,62.4,0.0,0.0,0.0,0.0,1,1,4.88,1,1.0,0,1.0,0,1.0,0,1.0
11,439,'1',0.01065,0.02922,0.00073,56.3,56.3,56.3,0.0,0.0,0.0,0.0,1,1,3.81,1,1.0,0,1.0,0,1.0,0,1.0
12,14,'1',0.01389,0.03578,0.0005,60.0,60.0,60.0,0.0,0.0,0.0,0.0,1,1,3.24,1,1.0,0,1.0,0,1.0,0,1.0
12,412,'1',0.03383,0.07323,0.00175,75.0,75.0,75.0,0.0,0.0,0.0,0.0,1,1,7.4,1,1.0,0,1.0,0,1.0,0,1.0
12,412,'2',0.03383,0.07323,0.00175,75.0,75.0,75.0,0.0,0.0,0.0,0.0,1,1,7.4,1,1.0,0,1.0,0,1.0,0,1.0
13,257,'1',0.0087,0.03396,0.03219,214.3,214.3,214.3,0.0,0.0,0.0,0.0,1,1,18.2,1,1.0,0,1.0,0,1.0,0,1.0
13,265,'1',0.00659,0.03908,0.0269,218.8,218.8,218.8,0.0,0.0,0.0,0.0,1,1,17.08,1,1.0,0,1.0,0,1.0,0,1.0
13,329,'1',0.00264,0.01373,0.00772,236.8,236.8,236.8,0.0,0.0,0.0,0.0,1,1,6.99,1,1.0,0,1.0,0,1.0,0,1.0
15,8,'1',0.00891,0.01924,0.00072,74.2,74.2,74.2,0.0,0.0,0.0,0.0,1,1,2.6,1,1.0,0,1.0,0,1.0,0,1.0
15,264,'1',0.00813,0.01726,0.00511,70.3,70.3,70.3,0.0,0.0,0.0,0.0,1,1,6.28,1,1.0,0,1.0,0,1.0,0,1.0
15,323,'1',0.03021,0.07932,0.00127,69.1,69.1,69.1,0.0,0.0,0.0,0.0,1,1,6.6,1,1.0,0,1.0,0,1.0,0,1.0
16,18,'1',0.0149,0.0381,0.00092,65.3,65.3,65.3,0.0,0.0,0.0,0.0,1,1,3.37,1,1.0,0,1.0,0,1.0,0,1.0
17,16,'1',0.0185,0.03503,0.00068,58.2,58.2,58.2,0.0,0.0,0.0,0.0,1,1,2.6,1,1.0,0,1.0,0,1.0,0,1.0
17,63,'1',0.04841,0.09586,0.00166,58.4,58.4,58.4,0.0,0.0,0.0,0.0,1,1,7.98,1,1.0,0,1.0,0,1.0,0,1.0
17,180,'1',0.01114,0.02965,0.01273,80.0,80.0,80.0,0.0,0.0,0.0,0.0,1,1,14.02,1,1.0,0,1.0,0,1.0,0,1.0
19,21,'1',0.00025,0.00116,0.0,165.6,165.6,165.6,0.0,0.0,0.0,0.0,1,1,0.0,1,1.0,0,1.0,0,1.0,0,1.0
20,18,'1',0.01014,0.02702,0.0003,60.7,60.7,60.7,0.0,0.0,0.0,0.0,1,1,2.22,1,1.0,0,1.0,0,1.0,0,1.0
20,64,'1',0.01277,0.03556,0.00503,53.9,53.9,53.9,0.0,0.0,0.0,0.0,1,1,7.72,1,1.0,0,1.0,0,1.0,0,1.0
21,92,'1',0.01189,0.04169,0.01094,193.4,193.4,193.4,0.0,0.0,0.0,0.0,1,1,12.02,1,1.0,0,1.0,0,1.0,0,1.0
22,577,'1',0.046,0.07097,0.00477,56.3,56.3,56.3,0.0,0.0,0.0,0.0,1,1,13.31,1,1.0,0,1.0,0,1.0,0,1.0
24,23,'1',0.01954,0.05007,0.00171,44.9,44.9,44.9,0.0,0.0,0.0,0.0,1,1,6.04,1,1.0,0,1.0,0,1.0,0,1.0
25,26,'1',0.0,0.001,0.0,82.8,82.8,82.8,0.0,0.0,0.0,0.0,1,1,0.0,1,1.0,0,1.0,0,1.0,0,1.0
25,69,'1',0.03099,0.08461,0.00075,48.7,48.7,48.7,0.0,0.0,0.0,0.0,1,1,5.05,1,1.0,0,1.0,0,1.0,0,1.0
25,324,'1',0.05501,0.14863,0.0122,64.6,64.6,64.6,0.0,0.0,0.0,0.0,1,1,24.16,1,1.0,0,1.0,0,1.0,0,1.0
25,352,'1',0.00927,0.02691,0.00532,58.3,58.3,58.3,0.0,0.0,0.0,0.0,1,1,7.18,1,1.0,0,1.0,0,1.0,0,1.0
27,28,'1',0.00027,0.00112,0.0,82.8,82.8,82.8,0.0,0.0,0.0,0.0,1,1,0.0,1,1.0,0,1.0,0,1.0,0,1.0
27,303,'1',0.0175,0.04935,0.00133,52.5,52.5,52.5,0.0,0.0,0.0,0.0,1,1,4.9,1,1.0,0,1.0,0,1.0,0,1.0
29,27,'1',0.03729,0.08293,0.00079,55.4,55.4,55.4,0.0,0.0,0.0,0.0,1,1,6.2,1,1.0,0,1.0,0,1.0,0,1.0
29,144,'1',0.01518,0.04249,0.00288,65.3,65.3,65.3,0.0,0.0,0.0,0.0,1,1,7.41,1,1.0,0,1.0,0,1.0,0,1.0
30,121,'1',0.04104,0.11293,0.00424,62.3,62.3,62.3,0.0,0.0,0.0,0.0,1,1,12.97,1,1.0,0,1.0,0,1.0,0,1.0
30,374,'1',0.06457,0.16601,0.00349,59.1,59.1,59.1,0.0,0.0,0.0,0.0,1,1,12.99,1,1.0,0,1.0,0,1.0,0,1.0
32,226,'1',0.02188,0.05892,0.00142,65.4,65.4,65.4,0.0,0.0,0.0,0.0,1,1,5.75,1,1.0,0,1.0,0,1.0,0,1.0
32,287,'1',0.04149,0.07396,0.00185,71.6,71.6,71.6,0.0,0.0,0.0,0.0,1,1,7.14,1,1.0,0,1.0,0,1.0,0,1.0
33,32,'1',0.02363,0.05725,0.00363,100.0,100.0,100.0,0.0,0.0,0.0,0.0,1,1,9.07,1,1.0,0,1.0,0,1.0,0,1.0
33,45,'1',0.01601,0.04724,0.00496,61.8,61.8,61.8,0.0,0.0,0.0,0.0,1,1,8.34,1,1.0,0,1.0,0,1.0,0,1.0
34,36,'1',0.00027,0.001,0.0,200.0,200.0,200.0,0.0,0.0,0.0,0.0,1,1,0.0,1,1.0,0,1.0,0,1.0,0,1.0
35,149,'1',0.00928,0.02211,0.00043,66.4,66.4,66.4,0.0,0.0,0.0,0.0,1,1,2.4,1,1.0,0,1.0,0,1.0,0,1.0
35,151,'1',0.00318,0.01048,0.00051,82.7,82.7,82.7,0.0,0.0,0.0,0.0,1,1,1.39,1,1.0,0,1.0,0,1.0,0,1.0
35,151,'2',0.00318,0.01048,0.00051,82.7,82.7,82.7,0.0,0.0,0.0,0.0,1,1,1.39,1,1.0,0,1.0,0,1.0,0,1.0
36,37,'1',0.00631,0.03158,0.00755,243.3,243.3,243.3,0.0,0.0,0.0,0.0,1,1,9.57,1,1.0,0,1.0,0,1.0,0,1.0
36,114,'1',0.00504,0.03449,0.13787,350.0,350.0,350.0,0.0,0.0,0.0,0.0,1,1,36.05,1,1.0,0,1.0,0,1.0,0,1.0
36,114,'2',0.00504,0.03449,0.13787,350.0,350.0,350.0,0.0,0.0,0.0,0.0,1,1,36.05,1,1.0,0,1.0,0,1.0,0,1.0
36,411,'1',0.00629,0.03107,0.00742,264.1,264.1,264.1,0.0,0.0,0.0,0.0,1,1,10.08,1,1.0,0,1.0,0,1.0,0,1.0
37,136,'1',0.00514,0.02521,0.03353,226.0,226.0,226.0,0.0,0.0,0.0,0.0,1,1,15.66,1,1.0,0,1.0,0,1.0,0,1.0
38,145,'1',0.00866,0.01765,0.00018,62.1,62.1,62.1,0.0,0.0,0.0,0.0,1,1,1.36,1,1.0,0,1.0,0,1.0,0,1.0
38,281,'1',0.01075,0.03111,0.00205,55.7,55.7,55.7,0.0,0.0,0.0,0.0,1,1,4.96,1,1.0,0,1.0,0,1.0,0,1.0
39,35,'1',0.01386,0.03798,0.00105,68.3,68.3,68.3,0.0,0.0,0.0,0.0,1,1,3.88,1,1.0,0,1.0,0,1.0,0,1.0
39,40,'1',0.0,0.001,0.0,82.8,82.8,82.8,0.0,0.0,0.0,0.0,1,1,0.0,1,1.0,0,1.0,0,1.0,0,1.0
39,41,'1',0.01749,0.05347,0.00123,68.1,68.1,68.1,0.0,0.0,0.0,0.0,1,1,5.08,1,1.0,0,1.0,0,1.0,0,1.0
40,146,'1',0.01479,0.02784,0.00026,59.1,59.1,59.1,0.0,0.0,0.0,0.0,1,1,0.0,1,1.0,0,1.0,0,1.0,0,1.0
41,412,'1',0.01536,0.04278,0.0005,72.7,72.7,72.7,0.0,0.0,0.0,0.0,1,1,3.13,1,1.0,0,1.0,0,1.0,0,1.0
42,43,'1',0.00023,0.00116,0.0,82.8,82.8,82.8,0.0,0.0,0.0,0.0,1,1,0.0,1,1.0,0,1.0,0,1.0,0,1.0
42,147,'1',0.01021,0.02569,0.00031,85.0,85.0,85.0,0.0,0.0,0.0,0.0,1,1,1.89,1,1.0,0,1.0,0,1.0,0,1.0
42,172,'1',0.01034,0.02954,0.00188,55.8,55.8,55.8,0.0,0.0,0.0,0.0,1,1,4.8,1,1.0,0,1.0,0,1.0,0,1.0
44,45,'1',0.00028,0.00119,0.0,82.8,82.8,82.8,0.0,0.0,0.0,0.0,1,1,0.0,1,1.0,0,1.0,0,1.0,0,1.0
46,31,'1',0.05038,0.10012,0.00098,53.7,53.7,53.7,0.0,0.0,0.0,0.0,1,1,5.73,1,1.0,0,1.0,0,1.0,0,1.0
47,50,'1',0.0344,0.09608,0.00122,53.3,53.3,53.3,0.0,0.0,0.0,0.0,1,1,6.98,1,1.0,0,1.0,0,1.0,0,1.0
48,49,'1',0.00024,0.00112,0.0,82.8,82.8,82.8,0.0,0.0,0.0,0.0,1,1,0.0,1,1.0,0,1.0,0,1.0,0,1.0
49,50,'1',0.02865,0.06052,0.00083,50.0,50.0,50.0,0.0,0.0,0.0,0.0,1,1,4.61,1,1.0,0,1.0,0,1.0,0,1.0
49,1700,'1',0.04331,0.11095,0.00129,55.9,55.9,55.9,0.0,0.0,0.0,0.0,1,1,7.51,1,1.0,0,1.0,0,1.0,0,1.0
50,51,'1',0.00027,0.00119,0.0,82.8,82.8,82.8,0.0,0.0,0.0,0.0,1,1,0.0,1,1.0,0,1.0,0,1.0,0,1.0
50,1705,'1',0.01821,0.04815,0.00344,57.0,57.0,57.0,0.0,0.0,0.0,0.0,1,1,7.42,1,1.0,0,1.0,0,1.0,0,1.0
52,297,'1',0.03139,0.07961,0.00091,55.5,55.5,55.5,0.0,0.0,0.0,0.0,1,1,6.11,1,1.0,0,1.0,0,1.0,0,1.0
52,1907,'1',0.07425,0.14976,0.0053,58.1,58.1,58.1,0.0,0.0,0.0,0.0,1,1,14.77,1,1.0,0,1.0,0,1.0,0,1.0
53,52,'1',0.0326,0.07476,0.00221,47.7,47.7,47.7,0.0,0.0,0.0,0.0,1,1,7.63,1,1.0,0,1.0,0,1.0,0,1.0
53,54,'1',0.00027,0.00112,0.0,82.8,82.8,82.8,0.0,0.0,0.0,0.0,1,1,0.0,1,1.0,0,1.0,0,1.0,0,1.0
55,57,'1',0.0003,0.0011,0.0,414.0,414.0,414.0,0.0,0.0,0.0,0.0,1,1,0.0,1,1.0,0,1.0,0,1.0,0,1.0
55,1614,'1',0.00798,0.04074,0.02479,183.5,183.5,183.5,0.0,0.0,0.0,0.0,1,1,17.41,1,1.0,0,1.0,0,1.0,0,1.0
58,56,'1',0.02677,0.04946,0.00059,59.6,59.6,59.6,0.0,0.0,0.0,0.0,1,1,3.35,1,1.0,0,1.0,0,1.0,0,1.0
59,56,'1',0.01262,0.03339,0.00061,65.5,65.5,65.5,0.0,0.0,0.0,0.0,1,1,3.05,1,1.0,0,1.0,0,1.0,0,1.0
60,62,'1',0.03515,0.10136,0.00063,54.1,54.1,54.1,0.0,0.0,0.0,0.0,1,1,5.27,1,1.0,0,1.0,0,1.0,0,1.0
62,1603,'1',0.03241,0.07489,0.0092,49.6,49.6,49.6,0.0,0.0,0.0,0.0,1,1,13.98,1,1.0,0,1.0,0,1.0,0,1.0
63,67,'1',0.02682,0.06666,0.00147,62.2,62.2,62.2,0.0,0.0,0.0,0.0,1,1,5.95,1,1.0,0,1.0,0,1.0,0,1.0
64,91,'1',0.0235,0.05751,0.00114,55.9,55.9,55.9,0.0,0.0,0.0,0.0,1,1,5.19,1,1.0,0,1.0,0,1.0,0,1.0
65,66,'1',0.03205,0.08264,0.00173,60.6,60.6,60.6,0.0,0.0,0.0,0.0,1,1,6.92,1,1.0,0,1.0,0,1.0,0,1.0
65,109,'1',0.0582,0.10902,0.00112,57.9,57.9,57.9,0.0,0.0,0.0,0.0,1,1,6.98,1,1.0,0,1.0,0,1.0,0,1.0
67,71,'1',0.03739,0.09462,0.00638,78.4,78.4,78.4,0.0,0.0,0.0,0.0,1,1,13.19,1,1.0,0,1.0,0,1.0,0,1.0
68,69,'1',0.03605,0.07795,0.00168,55.9,55.9,55.9,0.0,0.0,0.0,0.0,1,1,7.15,1,1.0,0,1.0,0,1.0,0,1.0
68,269,'1',0.01673,0.04281,0.00189,52.3,52.3,52.3,0.0,0.0,0.0,0.0,1,1,5.86,1,1.0,0,1.0,0,1.0,0,1.0
69,22,'1',0.02552,0.06993,0.00167,52.1,52.1,52.1,0.0,0.0,0.0,0.0,1,1,7.44,1,1.0,0,1.0,0,1.0,0,1.0
70,72,'1',0.00024,0.00118,0.0,165.6,165.6,165.6,0.0,0.0,0.0,0.0,1,1,0.0,1,1.0,0,1.0,0,1.0,0,1.0
70,1908,'1',0.00723,0.03362,0.01815,187.2,187.2,187.2,0.0,0.0,0.0,0.0,1,1,13.36,1,1.0,0,1.0,0,1.0,0,1.0
71,107,'1',0.05494,0.10268,0.0026,57.7,57.7,57.7,0.0,0.0,0.0,0.0,1,1,9.75,1,1.0,0,1.0,0,1.0,0,1.0
73,75,'1',0.00028,0.00107,0.0,165.6,165.6,165.6,0.0,0.0,0.0,0.0,1,1,0.0,1,1.0,0,1.0,0,1.0,0,1.0
75,84,'1',0.00521,0.02882,0.00405,208.8,208.8,208.8,0.0,0.0,0.0,0.0,1,1,7.44,1,1.0,0,1.0,0,1.0,0,1.0
76,2020,'1',0.0024,0.02943,0.38186,1035.0,1035.0,1035.0,0.0,0.0,0.0,0.0,1,1,59.77,1,1.0,0,1.0,0,1.0,0,1.0
77,84,'1',0.00479,0.03165,0.0031,210.6,210.6,210.6,0.0,0.0,0.0,0.0,1,1,5.69,1,1.0,0,1.0,0,1.0,0,1.0
77,85,'1',0.00594,0.03048,0.00769,254.8,254.8,254.8,0.0,0.0,0.0,0.0,1,1,8.92,1,1.0,0,1.0,0,1.0,0,1.0
78,94,'1',0.00615,0.01244,0.00026,69.3,69.3,69.3,0.0,0.0,0.0,0.0,1,1,0.0,1,1.0,0,1.0,0,1.0,0,1.0
78,95,'1',0.03284,0.07257,0.00169,71.9,71.9,71.9,0.0,0.0,0.0,0.0,1,1,6.89,1,1.0,0,1.0,0,1.0,0,1.0
78,97,'1',0.02774,0.05582,0.00315,62.5,62.5,62.5,0.0,0.0,0.0,0.0,1,1,8.01,1,1.0,0,1.0,0,1.0,0,1.0
79,78,'1',0.02001,0.05675,0.00131,53.9,53.9,53.9,0.0,0.0,0.0,0.0,1,1,5.41,1,1.0,0,1.0,0,1.0,0,1.0
79,86,'1',0.01566,0.03864,0.00125,67.1,67.1,67.1,0.0,0.0,0.0,0.0,1,1,4.67,1,1.0,0,1.0,0,1.0,0,1.0
80,376,'1',0.03789,0.09223,0.00152,66.3,66.3,66.3,0.0,0.0,0.0,0.0,1,1,8.1,1,1.0,0,1.0,0,1.0,0,1.0
81,80,'1',0.02967,0.07681,0.00046,64.2,64.2,64.2,0.0,0.0,0.0,0.0,1,1,4.42,1,1.0,0,1.0,0,1.0,0,1.0
81,93,'1',0.01988,0.04902,0.00211,58.3,58.3,58.3,0.0,0.0,0.0,0.0,1,1,7.02,1,1.0,0,1.0,0,1.0,0,1.0
82,84,'1',0.00029,0.00102,0.0,414.0,414.0,414.0,0.0,0.0,0.0,0.0,1,1,0.0,1,1.0,0,1.0,0,1.0,0,1.0
83,81,'1',0.00381,0.01076,0.0003,57.4,57.4,57.4,0.0,0.0,0.0,0.0,1,1,1.07,1,1.0,0,1.0,0,1.0,0,1.0
84,96,'1',0.00631,0.03691,0.01119,194.9,194.9,194.9,0.0,0.0,0.0,0.0,1,1,12.93,1,1.0,0,1.0,0,1.0,0,1.0
85,87,'1',0.00024,0.00113,0.0,165.6,165.6,165.6,0.0,0.0,0.0,0.0,1,1,0.0,1,1.0,0,1.0,0,1.0,0,1.0
85,114,'1',0.00742,0.04285,0.08388,261.2,261.2,261.2,0.0,0.0,0.0,0.0,1,1,33.39,1,1.0,0,1.0,0,1.0,0,1.0
85,1759,'1',0.00469,0.02961,0.03061,325.0,325.0,325.0,0.0,0.0,0.0,0.0,1,1,16.4,1,1.0,0,1.0,0,1.0,0,1.0
86,80,'1',0.01903,0.045,0.00115,62.2,62.2,62.2,0.0,0.0,0.0,0.0,1,1,5.09,1,1.0,0,1.0,0,1.0,0,1.0
88,1759,'1',0.01016,0.06325,0.01348,187.2,187.2,187.2,0.0,0.0,0.0,0.0,1,1,16.14,1,1.0,0,1.0,0,1.0,0,1.0
89,376,'1',0.0307,0.08586,0.00065,57.5,57.5,57.5,0.0,0.0,0.0,0.0,1,1,5.36,1,1.0,0,1.0,0,1.0,0,1.0
90,92,'1',0.00023,0.00103,0.0,414.0,414.0,414.0,0.0,0.0,0.0,0.0,1,1,0.0,1,1.0,0,1.0,0,1.0,0,1.0
92,77,'1',0.00549,0.03185,0.00652,216.6,216.6,216.6,0.0,0.0,0.0,0.0,1,1,8.99,1,1.0,0,1.0,0,1.0,0,1.0
93,78,'1',0.00615,0.01244,0.00026,69.3,69.3,69.3,0.0,0.0,0.0,0.0,1,1,1.02,1,1.0,0,1.0,0,1.0,0,1.0
93,94,'1',0.0,0.001,0.0,82.8,82.8,82.8,0.0,0.0,0.0,0.0,1,1,0.0,1,1.0,0,1.0,0,1.0,0,1.0
94,81,'1',0.01988,0.04902,0.00211,58.3,58.3,58.3,0.0,0.0,0.0,0.0,1,1,0.0,1,1.0,0,1.0,0,1.0,0,1.0
95,74,'1',0.01816,0.04437,0.00069,58.9,58.9,58.9,0.0,0.0,0.0,0.0,1,1,3.65,1,1.0,0,1.0,0,1.0,0,1.0
96,77,'1',0.00225,0.01514,0.0116,210.8,210.8,210.8,0.0,0.0,0.0,0.0,1,1,9.14,1,1.0,0,1.0,0,1.0,0,1.0
97,71,'1',0.03271,0.08645,0.00135,63.9,63.9,63.9,0.0,0.0,0.0,0.0,1,1,7.04,1,1.0,0,1.0,0,1.0,0,1.0
98,99,'1',0.00897,0.01897,0.00274,60.1,60.1,60.1,0.0,0.0,0.0,0.0,1,1,5.06,1,1.0,0,1.0,0,1.0,0,1.0
98,323,'1',0.01478,0.05109,0.01283,61.7,61.7,61.7,0.0,0.0,0.0,0.0,1,1,13.57,1,1.0,0,1.0,0,1.0,0,1.0
...